  62
        -98.93538410
 C          2.2296347199        1.2993313426        0.1327685861
 C          3.1676887913        0.5841623154        0.9146854588
 C          3.8825541154       -0.5320416872        0.2653951095
 C          3.5729592800       -0.8407171677       -1.0073510067
 C          4.1197975363       -1.9575730308       -1.8560354269
 C          3.5287066788       -3.3256030676       -1.4794740360
 C          3.4558413129       -3.6033933958        0.0198548491
 H          2.8511243604       -2.8296606174        0.4976293121
 H          2.9281830422       -4.5514232825        0.1557415712
 C          4.8035797684       -3.7105335095        0.7299711799
 H          5.3871948156       -4.5099500314        0.2683197588
 H          4.6014368427       -4.0017369554        1.7639255047
 C          5.6534066055       -2.4379884118        0.7526700609
 H          6.4448899991       -2.5897507510        1.4922848129
 H          6.1489593361       -2.2799214146       -0.2013502911
 C          4.9037636170       -1.1772088199        1.1715255042
 H          4.3889501055       -1.3645820658        2.1208305505
 H          5.6381482055       -0.3931939368        1.3931353719
 H          2.5105719731       -3.3741261321       -1.8749341461
 H          4.1183486020       -4.1031633952       -1.9680367989
 H          5.2041109256       -1.9748277917       -1.8005178923
 H          3.8412287753       -1.7321994819       -2.8878301254
 O          2.6255603805       -0.1565657871       -1.7086952864
 C          1.9258009832        0.9122562628       -1.1737062909
 O          1.0926573220        1.4103331346       -1.9519931589
 O          3.3982253689        0.8565188020        2.1248462420
 C          1.4716953140        2.4341180716        0.8006666620
 C         -0.0067430384        2.2330328192        0.5853823051
 C         -0.8154346591        3.1104155345       -0.1230728383
 C         -2.1549634592        2.8218407482       -0.3196982779
 C         -2.7152968756        1.6626509157        0.1847615104
 C         -1.9150399702        0.7788070047        0.8970053639
 C         -0.5770493187        1.0733472134        1.0975184500
 H          0.0498789790        0.3770303395        1.6432714307
 N         -2.4797293436       -0.4097561805        1.4111970787
 S         -3.0298058930       -1.5118940068        0.2612735574
 O         -3.0290177619       -2.7921085490        0.9374372985
 O         -2.2629532890       -1.4333990327       -0.9613704922
 C         -4.7117405081       -1.0101079791       -0.0318190418
 C         -5.0957924233       -0.6021661763       -1.2939398437
 C         -6.4116718697       -0.2180091815       -1.5012534482
 C         -7.3135594885       -0.2482071316       -0.4484590812
 C         -6.9114241023       -0.6618555887        0.8130517050
 C         -5.5981513086       -1.0487223745        1.0269499626
 H         -5.2443858142       -1.3825327170        1.9879936963
 H         -7.6160086414       -0.6840718297        1.6286551390
 H         -8.3362976627        0.0521870300       -0.6128015510
 H         -6.7256020670        0.1039074907       -2.4811986805
 H         -4.3560956317       -0.5889276384       -2.0787152442
 H         -1.8622067588       -0.8894362656        2.0521985191
 H         -3.7569675984        1.4340979602        0.0282062123
 H         -2.7706295576        3.5078804967       -0.8810863880
 H         -0.3892447860        4.0045417653       -0.5472147025
 H          1.6789924910        2.2989787056        1.8757963205
 C          1.9590838522        3.8288948306        0.4429568754
 C          3.3931034599        4.0697863170        0.0794889295
 C          2.3209024690        4.2321474240       -0.9537697112
 H          2.0709188339        5.2326352724       -1.2757424303
 H          2.2320371888        3.4890465784       -1.7300514821
 H          3.8800162635        4.9537316604        0.4630551347
 H          4.0412332473        3.2078871708        0.0111484043
 H          1.4868423990        4.5878128973        1.0594381992
