  62
        -98.93315327
 C         -2.2994962369       -1.2285374395       -0.0754795923
 C         -2.0743269883        0.0587856853       -0.6189888578
 C         -2.8361759831        1.1595235542       -0.0089094167
 C         -3.6470387558        0.9194065934        1.0359147466
 C         -4.4442962873        1.9322063888        1.8144835315
 C         -5.5672451797        2.6553291218        1.0457351895
 C         -5.1523185976        3.9997314151        0.4353243008
 H         -4.3047767860        4.3933692019        0.9978959084
 H         -5.9709803567        4.7106846037        0.5637687131
 C         -4.8098141530        3.9776483428       -1.0573965630
 H         -4.2994141992        4.9129963403       -1.2967672798
 H         -5.7363476891        3.9512128360       -1.6353449406
 C         -3.9450851336        2.8073707262       -1.5260347408
 H         -3.6146235209        3.0144578714       -2.5457656406
 H         -4.5513079590        1.8998630585       -1.5762244121
 C         -2.7188856035        2.5174806220       -0.6385893980
 H         -2.6047627969        3.2842097441        0.1263381042
 H         -1.8123167365        2.5026958371       -1.2467494172
 H         -6.3698321487        2.8401201511        1.7614525948
 H         -5.9660018973        1.9935789946        0.2773569144
 H         -3.7566922801        2.6708450294        2.2332698263
 H         -4.8824682579        1.3768702016        2.6463893168
 O         -3.8087163909       -0.3280467921        1.5554370050
 C         -3.1597170973       -1.4202816328        1.0111524723
 O         -3.4259638496       -2.5017722563        1.5730563398
 O         -1.2800282047        0.3095601416       -1.5657121196
 C         -1.6163884259       -2.4884267847       -0.5895059869
 C         -0.2139135664       -2.5794814473       -0.0365555234
 C          0.1237345405       -3.5542703664        0.8947573336
 C          1.3996967999       -3.6066962141        1.4287507829
 C          2.3631568539       -2.6890095390        1.0490960765
 C          2.0310987686       -1.7058388951        0.1265478485
 C          0.7559488355       -1.6630082543       -0.4168756733
 H          0.4985901128       -0.8849314270       -1.1204504362
 N          2.9999648711       -0.7501332244       -0.2656320255
 S          3.5286084342        0.2816980894        0.9662069580
 O          4.2038026971       -0.5061130837        1.9656671892
 O          2.4342040216        1.1042059965        1.4394932592
 C          4.7096343969        1.2745760847        0.0753721075
 C          5.9885569855        0.7829603376       -0.1018406974
 C          6.9001704782        1.5348328693       -0.8255081774
 C          6.5190083053        2.7572514314       -1.3586167959
 C          5.2315091229        3.2372907213       -1.1721948052
 C          4.3146139048        2.4896681980       -0.4498516220
 H          3.3053552348        2.8272177830       -0.2739295920
 H          4.9377306022        4.1884950136       -1.5862515337
 H          7.2297935091        3.3411396045       -1.9217718934
 H          7.9026908793        1.1663839863       -0.9714543085
 H          6.2404138881       -0.1682837043        0.3365839168
 H          2.6314870692       -0.1676983703       -1.0087665390
 H          3.3528525103       -2.7061259991        1.4746952775
 H          1.6463960118       -4.3687895417        2.1526837434
 H         -0.6293918690       -4.2599712378        1.2151372448
 H         -2.1927053921       -3.3259852849       -0.1744948523
 C         -1.6312215070       -2.5992401761       -2.1014869976
 C         -1.4278753742       -3.9429348740       -2.7314332409
 C         -2.7769966461       -3.2916781054       -2.7731058766
 H         -3.1349166246       -2.9005166611       -3.7136001534
 H         -3.5572856663       -3.6929382702       -2.1425153483
 H         -0.8566603097       -4.0014724257       -3.6450280773
 H         -1.2935166828       -4.7879498005       -2.0731741201
 H         -1.2110843239       -1.7378719271       -2.6028221080
