  62
        -98.94498595
 C          1.0698756904        1.3468582341        0.1875516708
 C          1.3836511710        0.0694205137        0.7130437446
 C          2.4028819994       -0.6949352085       -0.0178505478
 C          2.9250499894       -0.1811195354       -1.1464502720
 C          3.9924794355       -0.8362901387       -1.9735788635
 C          5.3935493110       -0.3934390772       -1.5293513072
 C          5.6225632839       -0.4937494587       -0.0213368563
 H          6.6528451610       -0.1874149238        0.1727146949
 H          4.9734725294        0.2238656614        0.4856955864
 C          5.3852726154       -1.8926790524        0.5642472871
 H          5.4031328150       -2.6359618379       -0.2334766574
 H          6.2042590363       -2.1299980168        1.2465545579
 C          4.0865109245       -2.0333944196        1.3603481856
 H          4.0223954803       -1.2308128577        2.0993616286
 H          4.1251275052       -2.9790073338        1.9074849939
 C          2.7928938420       -2.0360716792        0.5357806761
 H          2.8691968895       -2.7736342714       -0.2652071382
 H          1.9754199129       -2.3285190762        1.1999299229
 H          6.1309957221       -1.0046641433       -2.0528808709
 H          5.5400413549        0.6466947414       -1.8296063751
 H          3.8982496166       -1.9169571630       -1.8883742874
 H          3.8440837419       -0.5475351775       -3.0154445977
 O          2.5631032952        1.0270921115       -1.6470567014
 C          1.6325294750        1.8243794149       -0.9965228578
 O          1.4036855448        2.9068889135       -1.5675949993
 H         -1.5137719935        0.1206357813        0.2708142549
 C         -1.8750200282        1.0193772917       -0.2087351592
 C         -1.2126237910        2.2208463602        0.0160277178
 C         -1.6836434268        3.3693284409       -0.6051951700
 C         -2.7868761495        3.3070290981       -1.4390828438
 C         -3.4490215536        2.1122362143       -1.6525815810
 C         -2.9890154901        0.9575332125       -1.0284778654
 N         -3.6244072938       -0.2780198797       -1.2272093698
 S         -3.8304310223       -1.3050429918        0.0792206182
 O         -4.9212690999       -2.1729858314       -0.3158629741
 O         -4.0292655791       -0.5677412006        1.3055406772
 C         -2.3444264061       -2.2792394699        0.1622796743
 C         -1.8263876522       -2.6055189337        1.3991710338
 C         -0.7197197822       -3.4359382114        1.4649099567
 C         -0.1530599981       -3.9220274442        0.2974952696
 C         -0.6786347800       -3.5759009572       -0.9379625983
 C         -1.7891842786       -2.7510067859       -1.0103987364
 H         -2.2268750630       -2.4645530373       -1.9524575423
 H         -0.2277520138       -3.9480616296       -1.8440495503
 H          0.7060587797       -4.5721499770        0.3515844359
 H         -0.3026753186       -3.6929902741        2.4255017050
 H         -2.2889758960       -2.1951253423        2.2826787166
 H         -4.4504807391       -0.2435849137       -1.8071261182
 H         -4.3130565000        2.0684210509       -2.2983380120
 H         -3.1399342468        4.2042510669       -1.9246787500
 H         -1.1797157607        4.3085384572       -0.4491746198
 C          0.0132326740        2.1799397715        0.8942604990
 H         -0.2452424537        1.6148773885        1.8015684727
 C          0.5337080339        3.5412417624        1.2991943059
 C         -0.1917887996        4.3226499542        2.3525115131
 C          1.1434009008        3.7145789866        2.6566595642
 H          1.9969272062        4.3679071213        2.7588393731
 H          1.1756677000        2.8499101286        3.3035401584
 H         -0.2558986627        5.3950872891        2.2486323576
 H         -1.0680811203        3.8699786526        2.7921026671
 H          0.9841853043        4.0859299158        0.4780836116
 O          0.8365772395       -0.4084345757        1.7430438807
