  62
        -98.94090144
 C         -2.3002596367       -0.9582996808       -0.4396610425
 C         -3.2727645894       -0.3350287332        0.3855618907
 C         -3.6756553673        1.0266345805        0.0170275699
 C         -3.1089010009        1.6067259849       -1.0560924898
 C         -3.3766598628        3.0109294452       -1.5139820393
 C         -2.3951161231        4.0017209567       -0.8731658706
 C         -2.2717874148        3.8576069308        0.6438494825
 H         -1.8064409074        2.8950746823        0.8711667820
 H         -1.5828781082        4.6324154813        0.9874575352
 C         -3.5993124241        3.9773269782        1.4056333660
 H         -3.4473804448        4.6234125461        2.2726842120
 H         -4.3476009285        4.4547421199        0.7720875846
 C         -4.1508039595        2.6502304767        1.9295683503
 H         -4.9582625442        2.8708718613        2.6327396192
 H         -3.3694992725        2.1217364969        2.4817021906
 C         -4.7164065523        1.6987881698        0.8681211363
 H         -5.4369984585        2.2306127503        0.2435187854
 H         -5.2402824912        0.8926925942        1.3899538773
 H         -2.7174464581        5.0150656745       -1.1203741744
 H         -1.4064680983        3.8405942181       -1.3102280425
 H         -3.2588389843        3.0466473083       -2.5983535054
 H         -4.4000154143        3.2804640102       -1.2592350039
 O         -2.1895151723        0.9800462827       -1.8314057963
 C         -1.7531629209       -0.3084561426       -1.5470493672
 O         -0.9150442191       -0.7350590571       -2.3654136798
 O         -3.7916710066       -0.9032532443        1.3846213710
 C         -1.8748115988       -2.3584358418       -0.0297708792
 C         -0.6482980294       -2.2955273150        0.8501196444
 C         -0.7009216588       -2.7484323077        2.1634654052
 C          0.4132993682       -2.6740533749        2.9799052408
 C          1.5951360986       -2.1384723712        2.5035667982
 C          1.6599900713       -1.6865658826        1.1891269472
 C          0.5450414741       -1.7741316439        0.3683548027
 H          0.6077600591       -1.4074467598       -0.6451829242
 N          2.8583901119       -1.1640551445        0.6779563151
 S          2.7851666314        0.0965131105       -0.4453660852
 O          1.7711427505        1.0502141623       -0.0537287376
 O          2.6894263764       -0.4658226647       -1.7674758446
 C          4.4121023668        0.7962662968       -0.2232560051
 C          5.4847464194        0.1764402265       -0.8366818798
 C          6.7572294089        0.6889429800       -0.6408855306
 C          6.9358468635        1.8065250804        0.1611519174
 C          5.8501505767        2.4192937759        0.7683296978
 C          4.5747317169        1.9102939179        0.5779314071
 H          3.7000255584        2.3565411531        1.0233917234
 H          5.9911353144        3.2899262736        1.3883094876
 H          7.9270421761        2.2041051095        0.3115108832
 H          7.6029283679        0.2164808758       -1.1138241835
 H          5.2939873174       -0.6827488211       -1.4583397560
 H          3.5453409075       -0.9811977680        1.3969923010
 H          2.4637948042       -2.0693698599        3.1406237496
 H          0.3576328595       -3.0258478285        3.9988244224
 H         -1.6310198253       -3.1413978016        2.5468641992
 H         -2.7030240342       -2.7394338863        0.5844429419
 C         -1.6602226184       -3.3150682282       -1.1846557517
 C         -1.7791242510       -4.7877715482       -0.9343563900
 C         -2.8283514469       -4.0756926229       -1.7331841842
 H         -2.8753578550       -4.2450442591       -2.7983230718
 H         -3.7921582045       -3.9074036098       -1.2750122119
 H         -1.1025352079       -5.4517355195       -1.4498530530
 H         -2.0339685077       -5.1062421347        0.0650965686
 H         -0.9089763479       -2.9812121933       -1.8885293014
