  62
        -98.94253238
 C         -1.0198422874       -1.3340075940        0.6926144820
 C         -1.6193886264       -1.0013684913       -0.5491265198
 C         -2.4817704247        0.1926956255       -0.5369422394
 C         -2.6575507098        0.8932355116        0.5963976814
 C         -3.4795273126        2.1441155908        0.7511636808
 C         -4.9784336993        1.8857676753        0.9570897482
 C         -5.7355267923        1.4106206534       -0.2837064875
 H         -6.8009102373        1.4828111436       -0.0560637080
 H         -5.5333102001        2.0887179553       -1.1134726543
 C         -5.4190984015       -0.0307308206       -0.7068452917
 H         -6.3496512785       -0.5581197768       -0.9283812652
 H         -4.9416464254       -0.5577168991        0.1224594441
 C         -4.5278709164       -0.1472082311       -1.9438120262
 H         -4.3353716748       -1.2066228291       -2.1318061359
 H         -5.0502745324        0.2586620902       -2.8131043982
 C         -3.1743629114        0.5628015862       -1.8130354171
 H         -2.5327484130        0.2475366226       -2.6404736661
 H         -3.3071239204        1.6433510537       -1.8741852024
 H         -5.0995794696        1.1542833559        1.7592797418
 H         -5.4269725793        2.8239866795        1.2915410712
 H         -3.3338420542        2.7867957845       -0.1179229974
 H         -3.0964353517        2.6621752379        1.6329877326
 O         -2.0671441826        0.5392616539        1.7692442051
 C         -1.2413695784       -0.5721404777        1.8425300937
 O         -0.7699555080       -0.7787029205        2.9783066787
 O         -1.4627880097       -1.6448953571       -1.6166640106
 C         -0.0580621870       -2.4957275804        0.8786510024
 C          1.3654136664       -2.0351133556        0.6853864266
 C          2.3679828158       -2.4387312320        1.5600457103
 C          3.6736453411       -2.0202344537        1.3767093671
 C          3.9995737448       -1.1750754125        0.3314442720
 C          3.0033415962       -0.7573640827       -0.5433146369
 C          1.6986455454       -1.1959890735       -0.3689189710
 H          0.9421514324       -0.8761969379       -1.0687537951
 N          3.2974173435        0.1161798751       -1.6064375813
 S          2.3406295951        1.4792491705       -1.7875204157
 O          1.0653733042        1.1339660764       -2.3569525733
 O          3.1581331004        2.3894733694       -2.5611136353
 C          2.1441037969        2.0986792976       -0.1273274446
 C          3.2177909929        2.7339561694        0.4661078753
 C          3.1018403577        3.1598952016        1.7788289450
 C          1.9235831864        2.9353888535        2.4752207512
 C          0.8538890838        2.2996208100        1.8646585865
 C          0.9633669535        1.8756590493        0.5496429943
 H          0.1519419709        1.3764265301        0.0420857555
 H         -0.0590915978        2.1122727284        2.4080623868
 H          1.8337376007        3.2571809137        3.5007037622
 H          3.9284567042        3.6598109614        2.2573452179
 H          4.1123935385        2.8975266926       -0.1126570126
 H          4.2745079059        0.3648150023       -1.6744557477
 H          5.0154582704       -0.8388350371        0.1912161832
 H          4.4428834108       -2.3445273875        2.0604638006
 H          2.1143405069       -3.0751055336        2.3949031936
 H         -0.1626109576       -2.7966086950        1.9338118892
 C         -0.3992279375       -3.7115785081        0.0286854223
 C          0.3755344073       -4.1078645020       -1.1880276029
 C          0.4809216964       -4.9261656502        0.0616583924
 H          0.0149705003       -5.8996421001        0.0838693764
 H          1.4009237562       -4.8618104389        0.6223565059
 H         -0.1787066468       -4.4988526634       -2.0275745861
 H          1.2170049928       -3.4968723024       -1.4763153968
 H         -1.4693233444       -3.8883868546       -0.0077076133
