  62
        -98.94127244
 C          2.6100981917        1.1746883339        0.3961416987
 C          2.4267529466        0.4123846604       -0.7851281822
 C          3.1682540685       -0.8578151453       -0.8501313463
 C          3.9479875306       -1.2264516493        0.1813377192
 C          4.7060886447       -2.5185613357        0.2687439757
 C          3.8665857336       -3.6071058100        0.9522076535
 C          2.4503216335       -3.7406182484        0.3909640590
 H          1.9616389969       -4.5566920093        0.9281796126
 H          1.8852949144       -2.8315890548        0.6135056888
 C          2.3876257479       -4.0137422196       -1.1182797712
 H          3.3532700398       -4.3808921298       -1.4684764325
 H          1.6536168646       -4.8016907763       -1.2998778980
 C          1.9649955262       -2.8116350885       -1.9653599657
 H          1.0377501685       -2.3878583858       -1.5676532284
 H          1.7477674262       -3.1692963878       -2.9755960174
 C          3.0010849731       -1.6871394062       -2.0918633389
 H          3.9587565668       -2.1045056865       -2.4099286093
 H          2.6482419255       -1.0005220752       -2.8669760577
 H          3.7914603498       -3.3703934682        2.0161287701
 H          4.3885296551       -4.5603378347        0.8521850698
 H          5.6102744592       -2.3483095578        0.8555243290
 H          4.9878833915       -2.8371365135       -0.7327503655
 O          4.0893129727       -0.4759547827        1.3039449653
 C          3.4058515517        0.7208815004        1.4504193608
 O          3.5812442025        1.2762046196        2.5538354718
 O          1.6885011090        0.7602750255       -1.7414299899
 C          1.8603875334        2.4772305851        0.6265940605
 C          0.4082609651        2.2816056852        0.2642718798
 C         -0.2628882467        3.0244877677       -0.6965672856
 C         -1.5885354062        2.7529408477       -0.9888613526
 C         -2.2713043184        1.7452129276       -0.3330793395
 C         -1.6084958558        0.9949325624        0.6296430733
 C         -0.2846831559        1.2746447360        0.9260235402
 H          0.2351119865        0.6838279186        1.6723892599
 N         -2.2942043964       -0.0323885521        1.3068627165
 S         -3.0245661477       -1.2224278307        0.3687508840
 O         -3.0970855305       -2.3840698769        1.2294941655
 O         -2.3475086585       -1.3996111309       -0.8943732059
 C         -4.6693853917       -0.5943008398        0.1055834218
 C         -5.1406230635       -0.4111793527       -1.1794840517
 C         -6.4255876759        0.0778846203       -1.3579884594
 C         -7.2114640943        0.3727533044       -0.2544394145
 C         -6.7239452902        0.1801241671        1.0298045988
 C         -5.4410314584       -0.3095408971        1.2151622256
 H         -5.0248527944       -0.4776170843        2.1943966830
 H         -7.3381613038        0.4102703637        1.8853713408
 H         -8.2100831338        0.7547014711       -0.3962525869
 H         -6.8063217078        0.2275919663       -2.3555130295
 H         -4.4901924673       -0.6484731967       -2.0064205496
 H         -1.7445833302       -0.4637293503        2.0366754439
 H         -3.3008113602        1.5266379984       -0.5655709223
 H         -2.0962728989        3.3320364230       -1.7450913737
 H          0.2599166109        3.7949202814       -1.2388292495
 H          1.9131329447        2.6432161514        1.7157361727
 C          2.4929723149        3.6974803607       -0.0240690627
 C          3.9726926965        3.7650659116       -0.2541520304
 C          3.0361745125        3.6789532390       -1.4198439804
 H          2.9013132790        4.5589897490       -2.0317463889
 H          2.9753647689        2.7526260727       -1.9680183206
 H          4.4789832605        4.6997434725       -0.0652455899
 H          4.5580204071        2.8927669461       -0.0007993173
 H          2.0174652306        4.6176605448        0.3014276939
