  62
        -98.93420892
 C          1.9905224384        0.0312117586       -0.4792485290
 C          2.7908633955       -0.6219624414        0.4879589610
 C          4.1330670679       -0.0482965451        0.7177908434
 C          4.5025932839        1.0578132024        0.0514139282
 C          5.8282858076        1.7648771018        0.1101701811
 C          6.7601481328        1.2646472891       -1.0066040145
 C          7.5876323120        0.0299861668       -0.6508045789
 H          8.0957366161       -0.2941855386       -1.5620380910
 H          8.3578503828        0.3104347143        0.0707970851
 C          6.7936126925       -1.1498674767       -0.0840664582
 H          5.8739005688       -1.2830491507       -0.6565261379
 H          7.3929144838       -2.0521429407       -0.2209161713
 C          6.4636054197       -0.9947863018        1.4080009196
 H          6.7669465459       -1.8988008232        1.9402009719
 H          7.0586374394       -0.1801259667        1.8205501472
 C          4.9795875740       -0.7671070610        1.7330503916
 H          4.4847686822       -1.7337383031        1.8706932842
 H          4.9011445996       -0.2388172191        2.6891330606
 H          6.1459449011        1.0561329565       -1.8865287876
 H          7.4497837866        2.0679341973       -1.2738325902
 H          5.6230471908        2.8245010494       -0.0564685959
 H          6.2863990749        1.6465232323        1.0876170609
 O          3.6875870591        1.6755050283       -0.8483390601
 C          2.4316248779        1.1816208559       -1.1381477822
 O          1.8056841580        1.8393987561       -1.9947914459
 O          2.4283336289       -1.6371703571        1.1348743996
 C          0.5966739614       -0.4370900320       -0.8639442796
 C         -0.4382289616        0.1775605336        0.0420849836
 C         -0.3399751978        0.0700329236        1.4259112537
 C         -1.3040893323        0.6306948203        2.2436630036
 C         -2.3859584740        1.3026788726        1.7013301539
 C         -2.4945062881        1.4122506485        0.3219525390
 C         -1.5238230403        0.8511788439       -0.4978033329
 H         -1.6056858999        0.9540071248       -1.5715849000
 N         -3.6147870673        2.0672338283       -0.2316568316
 S         -5.1002473912        1.3721578932        0.1281464677
 O         -6.0139633523        1.8682451517       -0.8752346431
 O         -5.4378875793        1.6591488043        1.4984418183
 C         -4.8149508957       -0.3747849553       -0.0864166341
 C         -4.8579764651       -0.8929006733       -1.3657709945
 C         -4.5398650713       -2.2272305823       -1.5598892880
 C         -4.1710698572       -3.0127865061       -0.4783642815
 C         -4.1338409300       -2.4777780426        0.7995982981
 C         -4.4584459670       -1.1458192598        1.0016655961
 H         -4.4449321308       -0.6942951099        1.9797812210
 H         -3.8466176288       -3.0917632077        1.6378634545
 H         -3.9077102385       -4.0467971317       -0.6329692137
 H         -4.5704398471       -2.6476450860       -2.5523386460
 H         -5.1499188749       -0.2486970239       -2.1799346362
 H         -3.5377764800        2.2108541331       -1.2288448849
 H         -3.1517333596        1.7373322380        2.3234425519
 H         -1.2138081938        0.5426233315        3.3158179761
 H          0.4965792502       -0.4639675094        1.8499896094
 H          0.4319938253       -0.0314845762       -1.8747005942
 C          0.4727255332       -1.9528386974       -0.9586039693
 C         -0.4043610566       -2.7719088825       -0.0642478693
 C         -0.7915968480       -2.5574857514       -1.4941274260
 H         -0.7184655140       -3.3832784742       -2.1849991153
 H         -1.6158152180       -1.8873751871       -1.6891949842
 H         -0.0375419856       -3.7407358344        0.2375598795
 H         -0.9764855212       -2.2657261937        0.6969714651
 H          1.4024974158       -2.4156390081       -1.2714945665
