  62
        -98.94111003
 C          2.0222542446        1.2042564558        0.0994298618
 C          2.8317242967        0.6745335095        1.1364679197
 C          4.0280156827       -0.0666626640        0.7163940146
 C          4.2694700473       -0.2313117208       -0.5967519285
 C          5.4243643302       -1.0016134729       -1.1669951299
 C          5.0524985247       -2.4727660045       -1.3982139671
 C          4.3879654118       -3.1380763948       -0.1929076206
 H          3.4155848701       -2.6707455370       -0.0196208992
 H          4.1987477001       -4.1801916513       -0.4597432066
 C          5.2151201409       -3.0826406323        1.0992465496
 H          6.2568866944       -2.8633598563        0.8627095091
 H          5.1906458511       -4.0665030403        1.5726125446
 C          4.7083307366       -2.0772245052        2.1350329513
 H          5.2223087613       -2.2747082812        3.0794828508
 H          3.6402553861       -2.2346618733        2.3058182892
 C          4.9298446472       -0.5978741642        1.7950902022
 H          4.7017350967       -0.0143400376        2.6919165916
 H          5.9777915020       -0.4335891116        1.5358812454
 H          4.3616163490       -2.5270034981       -2.2428743146
 H          5.9583403593       -3.0203391591       -1.6646623539
 H          5.6991576690       -0.5516674619       -2.1225248074
 H          6.2713794673       -0.9324556430       -0.4870485114
 O          3.4488110362        0.2499777208       -1.5628896278
 C          2.2994487864        0.9675994359       -1.2483312294
 O          1.6405687667        1.3187113167       -2.2430772897
 O          2.5626713009        0.8127442167        2.3601142262
 C          0.7850743522        1.9856868389        0.5058888697
 C         -0.4180162663        1.4852845440       -0.2527532908
 C         -1.1667014966        2.2708508699       -1.1180066241
 C         -2.2469688669        1.7318792470       -1.7954602099
 C         -2.6089978073        0.4096052045       -1.6200573379
 C         -1.8750464224       -0.3820127446       -0.7449726451
 C         -0.7963568250        0.1608925449       -0.0643842053
 H         -0.2191198912       -0.4595664233        0.6106556511
 N         -2.2401673870       -1.7236404163       -0.5496080282
 S         -3.8628853631       -2.1033782702       -0.4172106660
 O         -3.9009816402       -3.3120946799        0.3763816783
 O         -4.4523080581       -2.1957836939       -1.7297441961
 C         -4.5972516273       -0.7454564083        0.4780453787
 C         -5.6048859794       -0.0025894434       -0.1024480703
 C         -6.1439400976        1.0622802399        0.6017458737
 C         -5.6656255299        1.3662415728        1.8665787053
 C         -4.6551978139        0.6078694532        2.4381891803
 C         -4.1141962927       -0.4589671170        1.7395726906
 H         -3.3314492162       -1.0705706802        2.1591208115
 H         -4.2846797197        0.8449036346        3.4226185674
 H         -6.0822888993        2.1980739680        2.4121624389
 H         -6.9311829205        1.6519531054        0.1605585201
 H         -5.9448540296       -0.2719747597       -1.0891835796
 H         -1.6857533217       -2.2107060097        0.1380117318
 H         -3.4326699487       -0.0283035817       -2.1600737420
 H         -2.8108321596        2.3494000610       -2.4777026784
 H         -0.8864010332        3.2972189449       -1.2863457486
 H          0.6431198252        1.7294762817        1.5693432739
 C          0.9507355002        3.4967263803        0.4495832021
 C          2.2915956095        4.1326714006        0.6590678147
 C          1.6348535187        4.1949554039       -0.6857583938
 H          1.2372596332        5.1434855567       -1.0163567453
 H          2.0305810781        3.5870317084       -1.4838096259
 H          2.3457539396        5.0348037371        1.2497615453
 H          3.1426833141        3.4785481447        0.7824619866
 H          0.1037606425        4.0100073001        0.8943796028
