  62
        -98.94069465
 C         -1.5769319790       -1.1133201428        0.8651420368
 C         -2.7970482135       -1.2687532890        0.1612430760
 C         -3.7849080650       -0.1925785778        0.3516898351
 C         -3.4861229640        0.8571689132        1.1367436240
 C         -4.3718259663        2.0491264812        1.3537894415
 C         -4.0807026051        3.1541033575        0.3283142424
 C         -4.0321812860        2.6592605457       -1.1172711372
 H         -3.8485754999        3.5283873274       -1.7524746238
 H         -3.1791125581        1.9874096331       -1.2368557607
 C         -5.3079719273        1.9453720597       -1.5853810314
 H         -6.1359761005        2.1908806034       -0.9192743561
 H         -5.5717097637        2.3140864842       -2.5789086317
 C         -5.1802849267        0.4249179938       -1.6945526229
 H         -4.2981878957        0.1727294032       -2.2882242930
 H         -6.0546728992        0.0478919994       -2.2317704263
 C         -5.0987627298       -0.3347639069       -0.3645057185
 H         -5.9246278568       -0.0334555676        0.2831327266
 H         -5.2060608906       -1.4008603107       -0.5852587082
 H         -4.8477429823        3.9246269825        0.4254652534
 H         -3.1152566312        3.6046045528        0.5692225537
 H         -5.4125594417        1.7388610147        1.2830294419
 H         -4.1862849245        2.4374229786        2.3567504908
 O         -2.3024340214        0.9746111250        1.7920700335
 C         -1.3285390550       -0.0014594622        1.6739674882
 O         -0.2946049379        0.2273916498        2.3341289437
 H          2.2218970466       -1.5972779032        0.8869921389
 C          1.8243595197       -1.4992730793       -0.1118745937
 C          0.4802193991       -1.7383295257       -0.3535085710
 C         -0.0057491085       -1.5922628865       -1.6502113028
 C          0.8425129442       -1.2224356931       -2.6769092388
 C          2.1813751475       -0.9704746114       -2.4292742206
 C          2.6742188523       -1.1048800512       -1.1373557995
 N          4.0289493691       -0.8563689658       -0.8538104371
 S          4.4232237317        0.1575825121        0.4216076878
 O          5.8205720353        0.4684211024        0.2128984568
 O          4.0938204028       -0.4752919909        1.6716248803
 C          3.4354519613        1.6169632996        0.1486987595
 C          2.1694753633        1.7125254745        0.6892154786
 C          1.4006714301        2.8270364464        0.3894917908
 C          1.9032620597        3.8197462041       -0.4361716021
 C          3.1806591023        3.7105606877       -0.9661555303
 C          3.9523869655        2.5978929611       -0.6769976166
 H          4.9527195815        2.4767004766       -1.0604444792
 H          3.5731155347        4.4865449438       -1.6034439628
 H          1.2975868179        4.6828026668       -0.6639655852
 H          0.4099909493        2.8990998071        0.8112903308
 H          1.7859823635        0.9390658102        1.3361813031
 H          4.5792189925       -0.6171371590       -1.6668730811
 H          2.8408148018       -0.6727246653       -3.2302482300
 H          0.4565353833       -1.1190844930       -3.6797358503
 H         -1.0525431266       -1.7766939002       -1.8394682285
 C         -0.4349508267       -2.1141198974        0.7834272132
 H          0.1336806197       -1.9818291707        1.7182334980
 C         -0.8980393564       -3.5637251975        0.7415769948
 C         -0.6770270635       -4.4750177642       -0.4246629893
 C          0.1194672580       -4.6630471600        0.8289865817
 H         -0.0888163247       -5.5151868825        1.4581888398
 H          1.1603085077       -4.3739145471        0.8087776893
 H         -1.4572332180       -5.1838153035       -0.6565425838
 H         -0.1710360771       -4.0855547744       -1.2936335164
 H         -1.8185419287       -3.7121905155        1.2961315483
 O         -3.0674622184       -2.2401996596       -0.5889241178
