  62
        -98.94273033
 C         -0.9900505488       -1.2564484335       -0.5171155284
 C         -1.9855755252       -1.5409156260        0.4532497368
 C         -2.9295351569       -0.4602592374        0.7615432800
 C         -2.7870351067        0.7265336796        0.1444449267
 C         -3.6973692027        1.9043158784        0.3340616804
 C         -4.8421391372        1.8922835935       -0.6883677323
 C         -5.5658369695        0.5495014738       -0.7881456401
 H         -6.3722687283        0.6667336033       -1.5154367733
 H         -4.8773405999       -0.1974212930       -1.1899931788
 C         -6.1451823177        0.0401652913        0.5390801526
 H         -6.2184619944        0.8623578774        1.2517549568
 H         -7.1588507268       -0.3253710013        0.3612677726
 C         -5.3621060382       -1.1111993817        1.1731565209
 H         -5.2060077329       -1.8997468250        0.4325257530
 H         -5.9710371926       -1.5343863549        1.9766078576
 C         -4.0012891964       -0.7411812389        1.7769426148
 H         -4.1192339197        0.1037430876        2.4583051767
 H         -3.6487831313       -1.6013035747        2.3536536012
 H         -5.5562324209        2.6723085464       -0.4180664906
 H         -4.4311655172        2.1323151527       -1.6715298505
 H         -4.0997327021        1.8857614549        1.3448788567
 H         -3.1121736057        2.8143963704        0.1999276810
 O         -1.8166265934        0.9700193559       -0.7692492151
 C         -0.8955384947       -0.0072235669       -1.1335846621
 O         -0.0844893210        0.3753154977       -1.9949412596
 H          1.4546152520       -0.1931293121       -0.1216229665
 C          1.7814028709       -1.0722293351        0.4111734920
 C          1.1526352385       -2.2868790789        0.1782272531
 C          1.5853903248       -3.4088061389        0.8751544713
 C          2.6276028880       -3.3137015870        1.7803733930
 C          3.2617973306       -2.1039980452        1.9988107560
 C          2.8337951479       -0.9751757792        1.3088597263
 N          3.4270422646        0.2758354147        1.5256865670
 S          3.6113624345        1.3366224651        0.2428531150
 O          3.9160544980        0.6315759969       -0.9799370425
 O          4.6277471672        2.2652582448        0.6966802706
 C          2.0705900588        2.2169963203        0.1204650631
 C          1.6829158021        2.6978379957       -1.1131370110
 C          0.5270444204        3.4560014370       -1.2037171170
 C         -0.2177282997        3.7151319274       -0.0653048070
 C          0.1792846164        3.2159904985        1.1657526984
 C          1.3383542617        2.4640305714        1.2647223280
 H          1.6742174277        2.0588315492        2.2052201167
 H         -0.4113346017        3.4080119214        2.0475639994
 H         -1.1160910878        4.3080470304       -0.1405083253
 H          0.2073432100        3.8278011209       -2.1637433196
 H          2.2770060197        2.4541828547       -1.9791523546
 H          4.2299307965        0.2764052934        2.1376647933
 H          4.0768047305       -2.0285026057        2.7023818545
 H          2.9528234107       -4.1906823252        2.3191408317
 H          1.0888871593       -4.3545252400        0.7152233851
 C          0.0058674141       -2.3680370535       -0.7973284136
 H         -0.5389820267       -3.3020958813       -0.5841775969
 C          0.4689129154       -2.4393336811       -2.2439923353
 C          1.7943919377       -1.9360543363       -2.7219809655
 C          1.5406161587       -3.4102089200       -2.6447457483
 H          1.4213286345       -3.9638697860       -3.5638496659
 H          2.0347379187       -3.9596533444       -1.8575153768
 H          2.4696602674       -1.4812653947       -2.0131573072
 H          1.8234206027       -1.4632092642       -3.6921669123
 H         -0.3601817115       -2.3191141024       -2.9347209591
 O         -2.0794465191       -2.6567741569        1.0328197984
