  62
        -98.93887748
 C         -1.7960376755       -1.1266567789        0.5190106862
 C         -2.0183584366        0.1330305876        1.1341818337
 C         -3.4049301367        0.6097904420        1.1606878075
 C         -4.3833736253       -0.1641051989        0.6576108790
 C         -5.8523512698        0.1614085960        0.6409305083
 C         -6.2842391867        1.0401013486       -0.5407971748
 C         -5.8423518158        2.5017463418       -0.4591120244
 H         -6.3905976851        3.0463042123       -1.2304100891
 H         -6.1381324595        2.9168248247        0.5048603844
 C         -4.3383591252        2.7211752557       -0.6761326555
 H         -3.9025849823        1.8344976317       -1.1428726908
 H         -4.1865307602        3.5519961603       -1.3690575782
 C         -3.5534977155        3.0447737601        0.5955222074
 H         -3.8880860796        4.0034792581        0.9984907948
 H         -2.4969309172        3.1420545107        0.3301746904
 C         -3.6703548154        1.9835314629        1.6976799044
 H         -2.9149697475        2.1952220069        2.4584414972
 H         -4.6562675683        2.0288882609        2.1601953323
 H         -5.9040793957        0.5962339234       -1.4637118808
 H         -7.3754777713        1.0146623121       -0.5842697884
 H         -6.3807069264       -0.7918899232        0.5719850653
 H         -6.1302403846        0.6464792486        1.5770679359
 O         -4.1376838347       -1.3818934588        0.1107515635
 C         -2.8446984543       -1.8838071859       -0.0053785014
 O         -2.7925633588       -2.9896866957       -0.5725370553
 O         -1.0973387153        0.8201462191        1.6529714599
 C         -0.3572105158       -1.6073713758        0.4636662483
 C          0.2959944062       -1.2061332401       -0.8345959371
 C         -0.2750975217       -1.5209825455       -2.0642169714
 C          0.3476504637       -1.1437311201       -3.2398042654
 C          1.5381806800       -0.4381449916       -3.2139886521
 C          2.1138184412       -0.1118345186       -1.9919239512
 C          1.4934991993       -0.5063524576       -0.8140394229
 H          1.9376380979       -0.2418226000        0.1323841100
 N          3.3316628800        0.5794704326       -1.9324093012
 S          3.5765424653        1.7666689386       -0.7729336676
 O          2.3560032615        2.4755784954       -0.4717350569
 O          4.6626564833        2.5613397715       -1.3064387422
 C          4.1648920771        0.8690678374        0.6467097050
 C          3.4836419029        0.9468021514        1.8453096848
 C          3.9636030489        0.2351095922        2.9341024160
 C          5.1093363468       -0.5350568536        2.8056836124
 C          5.7838160697       -0.5988221864        1.5954031880
 C          5.3099098543        0.1099915382        0.5034427193
 H          5.8062500986        0.0916813127       -0.4523973649
 H          6.6740294678       -1.1993864807        1.5004848491
 H          5.4768435871       -1.0889582282        3.6550937520
 H          3.4364443537        0.2825311406        3.8736787943
 H          2.5873301573        1.5462704591        1.9010641546
 H          3.7061920456        0.8538301399       -2.8290560649
 H          2.0176636142       -0.1386731611       -4.1336965373
 H         -0.1026452344       -1.3959629676       -4.1882623637
 H         -1.2068646046       -2.0657197856       -2.0864107783
 H          0.1484560831       -1.0482450777        1.2673621555
 C         -0.1985151462       -3.0885251751        0.7791304161
 C          0.2337217866       -4.1127269920       -0.2223555404
 C          1.1751909836       -3.6866656254        0.8613505769
 H          1.3935350861       -4.3759788898        1.6625363556
 H          2.0049536145       -3.0551599490        0.5800191905
 H         -0.2237031535       -5.0884984881       -0.1637958157
 H          0.4365517562       -3.7897958488       -1.2308601215
 H         -0.9192907964       -3.4202304651        1.5196914850
