  62
        -98.94459914
 C         -1.6275776103       -1.4602877776        0.1911649870
 C         -1.8026033195       -0.3911959885        1.1093754358
 C         -3.0369801160        0.3894166385        0.9766872147
 C         -3.9061520730        0.0936178119       -0.0070714703
 C         -5.2363353547        0.7555239524       -0.2472684495
 C         -5.1605527694        2.0678889082       -1.0392595695
 C         -4.5915860272        3.2594362542       -0.2683300713
 H         -4.7973733206        4.1532661766       -0.8603735798
 H         -5.1236448257        3.3662691824        0.6774775371
 C         -3.0814381764        3.1760628930       -0.0065843490
 H         -2.6162156536        4.1344264088       -0.2479796644
 H         -2.6452048040        2.4254660427       -0.6702276478
 C         -2.7080839752        2.8410119379        1.4374319636
 H         -1.6189052049        2.7914011315        1.5158090951
 H         -3.0523953427        3.6393309467        2.0986699658
 C         -3.2789536965        1.5099924124        1.9434588622
 H         -2.7743220358        1.2547090489        2.8788454915
 H         -4.3465280298        1.6110178658        2.1407117480
 H         -6.1771160217        2.3168945123       -1.3520650638
 H         -4.5676997457        1.8989336661       -1.9409279920
 H         -5.8358002835        0.0434242529       -0.8184799836
 H         -5.7299727627        0.9355904606        0.7085182141
 O         -3.6740384662       -0.8960828975       -0.9061647917
 C         -2.5428188205       -1.6985146673       -0.8354450352
 O         -2.4941415504       -2.5598958948       -1.7341759444
 H          1.9957473115       -1.3535448182        1.1160856620
 C          1.9111610598       -1.4787721729        0.0470152574
 C          0.7367756114       -1.9672371181       -0.5066144567
 C          0.6565049971       -2.1122443624       -1.8880086876
 C          1.7338959691       -1.7788044836       -2.6878899091
 C          2.9008506831       -1.2816758712       -2.1328854823
 C          2.9877286374       -1.1254924386       -0.7553693439
 N          4.1552853020       -0.6193444310       -0.1555825464
 S          4.0073517802        0.6468117941        0.9338581128
 O          5.3445809891        1.1874597098        1.0439959783
 O          3.4100495587        0.1798294661        2.1569538300
 C          2.9518776380        1.8068460778        0.0866026690
 C          3.5523868766        2.6842706724       -0.7966066853
 C          2.7587388691        3.5317444124       -1.5509016241
 C          1.3791550943        3.4748232479       -1.4228388763
 C          0.7932622324        2.5878630900       -0.5339486838
 C          1.5808619736        1.7448237525        0.2351503426
 H          1.1396732008        1.0565474955        0.9396316185
 H         -0.2791032121        2.5388173335       -0.4333971942
 H          0.7551173309        4.1244786233       -2.0159939312
 H          3.2139568388        4.2264174031       -2.2382027104
 H          4.6284791103        2.6945275661       -0.8621250437
 H          4.9007290402       -0.4272023659       -0.8101130031
 H          3.7388169447       -1.0185963803       -2.7603716014
 H          1.6623732639       -1.9006609849       -3.7580555914
 H         -0.2593196974       -2.4800331234       -2.3244650155
 C         -0.4092943053       -2.3436934187        0.4009746984
 H         -0.0869399709       -2.1404217557        1.4320452881
 C         -0.7162640129       -3.8245234795        0.2837974610
 C          0.2062910293       -4.8072199142        0.9373891383
 C         -1.1652436990       -4.5788800055        1.4972160656
 H         -1.9092107839       -5.3519772668        1.3768831755
 H         -1.2525952149       -4.0304750028        2.4242059246
 H          1.0495912069       -4.4132502480        1.4851080424
 H          0.4070143193       -5.7396291325        0.4326490888
 H         -1.1581353377       -4.1011423288       -0.6641947289
 O         -0.9711857914       -0.1180554709        2.0172370972
