  62
        -98.93928794
 C         -2.0112231908       -0.8973331876        0.0262163560
 C         -2.3295625146        0.0745990008        0.9993965426
 C         -2.4000909981        1.4718136527        0.5404536873
 C         -2.1507073428        1.7538745377       -0.7521306490
 C         -2.0796634920        3.0770158570       -1.4867121721
 C         -2.6336372668        4.3530313926       -0.8579755061
 C         -4.1525811559        4.3762454842       -0.6902618308
 H         -4.4214730694        5.2845308534       -0.1468563649
 H         -4.6100752165        4.4318755616       -1.6810497265
 C         -4.7538380209        3.1709261314        0.0279124795
 H         -4.5750438822        2.2676780061       -0.5588976266
 H         -5.8363614854        3.3159528170        0.0760339450
 C         -4.2525170917        2.9426210550        1.4525254461
 H         -4.8744385431        2.1623732047        1.8991717262
 H         -4.3845084514        3.8531677893        2.0399511361
 C         -2.7869726338        2.4890872817        1.5752870933
 H         -2.1035912153        3.3351866084        1.5530277787
 H         -2.6631896597        1.9984060344        2.5454044487
 H         -2.3625897407        5.1722359962       -1.5295673967
 H         -2.1411103524        4.5477889582        0.0902233148
 H         -2.5712737000        2.9090849557       -2.4504214736
 H         -1.0161015688        3.2281259542       -1.7052967143
 O         -1.8506196080        0.7779661758       -1.6589931194
 C         -1.7545564866       -0.5542118446       -1.2998048424
 O         -1.4594739454       -1.3208189242       -2.2372660109
 O         -2.5367115203       -0.2108608107        2.2116818732
 C         -1.8518587708       -2.3466410139        0.4460168203
 C         -0.4473497925       -2.8039692466        0.1350546445
 C         -0.1487032642       -4.0386874255       -0.4261300835
 C          1.1615813971       -4.3729732230       -0.7231418416
 C          2.1933095193       -3.4855667535       -0.4809959983
 C          1.9065043079       -2.2554544245        0.1013369380
 C          0.5988323920       -1.9362780336        0.4230650054
 H          0.3892260023       -0.9761403061        0.8734868520
 N          2.9298949050       -1.3333408173        0.3869976291
 S          2.5764167559        0.3126295938        0.2445018142
 O          1.9443525283        0.7584415012        1.4620621522
 O          1.8636367605        0.5772003581       -0.9852036633
 C          4.2299094649        0.9767411148        0.1586718877
 C          4.9476437393        1.1179162080        1.3315551668
 C          6.2452836983        1.6002229729        1.2687252967
 C          6.8009051160        1.9308132388        0.0414608982
 C          6.0680103660        1.7853441577       -1.1267619299
 C          4.7699456110        1.3018569307       -1.0711061925
 H          4.1585423092        1.1781152135       -1.9508357088
 H          6.5008275635        2.0457769686       -2.0791632021
 H          7.8107138207        2.3066763633       -0.0048505821
 H          6.8171266578        1.7168340367        2.1750521715
 H          4.4692332521        0.8563766029        2.2608977954
 H          3.7990643244       -1.5621026597       -0.0768357234
 H          3.2106698896       -3.7380173388       -0.7384422428
 H          1.3794442973       -5.3322214065       -1.1677270411
 H         -0.9430198583       -4.7334092001       -0.6449444987
 H         -1.9852440487       -2.3532080242        1.5387106114
 C         -2.9240682787       -3.2108993683       -0.1837557622
 C         -3.4240923890       -4.4344957389        0.5229830295
 C         -4.2939599724       -3.2187470983        0.4234827742
 H         -5.1492459282       -3.2451797554       -0.2347947108
 H         -4.4435898115       -2.6197211039        1.3099760789
 H         -3.6867244148       -5.2993329897       -0.0673447777
 H         -2.9907185615       -4.6683636122        1.4835995484
 H         -2.8549872097       -3.2314714251       -1.2657437773
