  62
        -98.94396204
 C         -1.7039076551       -1.4526652631        0.5047635387
 C         -2.5704566844       -0.9747923993       -0.5091413218
 C         -3.4353053920        0.1549972271       -0.1298441529
 C         -3.3123430990        0.7077091924        1.0898996427
 C         -4.1059244782        1.8805288789        1.5877952014
 C         -3.4051496640        3.2114651364        1.2825845049
 C         -2.9357600956        3.3423004737       -0.1658915125
 H         -2.1599726264        2.5980884535       -0.3569179762
 H         -2.4789541650        4.3289135819       -0.2691787887
 C         -4.0470042672        3.1810277169       -1.2119772267
 H         -3.9415363092        3.9681662173       -1.9614078209
 H         -5.0228506175        3.3109911662       -0.7425727250
 C         -4.0169058672        1.8463349075       -1.9586409118
 H         -3.0129440672        1.6664209052       -2.3507329365
 H         -4.6942080569        1.9196799663       -2.8136511061
 C         -4.4433022992        0.6183668722       -1.1444543008
 H         -4.5677384670       -0.2138821801       -1.8432756748
 H         -5.4061920254        0.8108894098       -0.6663822329
 H         -2.5352215720        3.3044612658        1.9372139403
 H         -4.0930674990        4.0248474635        1.5204473214
 H         -4.2227536906        1.7806521056        2.6684103104
 H         -5.0909201411        1.8641905786        1.1248573286
 O         -2.4069480282        0.2765577561        2.0060564393
 C         -1.5939799997       -0.8105355373        1.7414849486
 O         -0.8204377492       -1.1086108096        2.6749717152
 O         -2.6460138971       -1.4561125694       -1.6684857911
 C         -0.7810645000       -2.6479336524        0.3069589323
 C          0.4773097719       -2.1557098768       -0.3648399692
 C          0.5577249537       -1.9340091814       -1.7349770174
 C          1.7120892064       -1.4110696652       -2.2910224153
 C          2.8004306558       -1.0896019507       -1.4983359671
 C          2.7218426631       -1.2948012792       -0.1271888773
 C          1.5698050818       -1.8316429297        0.4279482265
 H          1.5033970799       -1.9714132547        1.4987815046
 N          3.8057798007       -0.9317091459        0.6944492720
 S          4.4264206934        0.6057722444        0.4641502814
 O          5.3859876334        0.5792941208       -0.6116287695
 O          4.9420192493        1.0115416589        1.7528233108
 C          3.0334076360        1.6193884835       -0.0057477822
 C          3.0868763417        2.3472528260       -1.1769159311
 C          1.9950161628        3.1201170120       -1.5375849708
 C          0.8701041828        3.1457318063       -0.7283580087
 C          0.8309320589        2.4073342929        0.4444240181
 C          1.9219724122        1.6382921557        0.8137688056
 H          1.9079762135        1.0575172908        1.7229154428
 H         -0.0460948549        2.4167925713        1.0732127258
 H          0.0175157928        3.7424715099       -1.0115273444
 H          2.0214731902        3.6956123773       -2.4487259580
 H          3.9779895889        2.2903758666       -1.7806515162
 H          3.6405116305       -1.1050104613        1.6757185245
 H          3.7040757525       -0.6761434070       -1.9166286016
 H          1.7639962090       -1.2446740285       -3.3561096925
 H         -0.2988568216       -2.1460324033       -2.3547390960
 H         -0.5072204672       -2.9802035029        1.3176218818
 C         -1.4288929154       -3.8103457533       -0.4138466676
 C         -0.7864532743       -5.1606342601       -0.3219683469
 C         -2.0786297837       -4.8952156556        0.3891176776
 H         -2.9816350888       -5.3472975886        0.0072495264
 H         -2.0594038820       -4.8045886331        1.4657852046
 H         -0.7993673185       -5.7978927462       -1.1926527578
 H          0.1105215911       -5.2483397838        0.2728770031
 H         -1.9027792258       -3.5394377483       -1.3469018429
