  62
        -98.93534257
 C          2.1808133540        1.1335365253        0.0085939227
 C          2.8466396576        0.4301099386        1.0428969750
 C          3.6771216041       -0.7265375837        0.6583362920
 C          3.7449063321       -1.0652572409       -0.6421796244
 C          4.5485836722       -2.1665561339       -1.2808106578
 C          6.0443853085       -1.8263886696       -1.3835241064
 C          6.6476234657       -1.1927799367       -0.1326465736
 H          7.6738802349       -0.9012621888       -0.3709289786
 H          6.0987569681       -0.2802475256        0.1068526167
 C          6.6925253682       -2.0956651518        1.0976948950
 H          7.2248971213       -1.5501573655        1.8809569635
 H          7.2723802553       -2.9912733372        0.8639292435
 C          5.3365626410       -2.5280062759        1.6597187026
 H          5.5154116834       -2.9493411879        2.6532598351
 H          4.8987679231       -3.3235856630        1.0626380611
 C          4.3314644186       -1.3951701618        1.8431294223
 H          3.5051042185       -1.7591032432        2.4660236046
 H          4.7972296441       -0.5915667589        2.4248399147
 H          6.1735127614       -1.1216953907       -2.2086507650
 H          6.5885656503       -2.7392106154       -1.6313545950
 H          4.1514803707       -2.2993290367       -2.2898077481
 H          4.3977356330       -3.0976363726       -0.7423413182
 O          3.0737327460       -0.3720314812       -1.6042563096
 C          2.2751910701        0.7236549167       -1.3205355258
 O          1.7264526136        1.2137019460       -2.3268129753
 O          2.7637097819        0.7653379322        2.2554118077
 C          1.3408144751        2.3280179852        0.4284714928
 C         -0.0892587826        1.9084240999        0.6528181537
 C         -0.7277423806        2.1419768348        1.8644247718
 C         -2.0298567498        1.7176442626        2.0671490440
 C         -2.7198245662        1.0548610500        1.0680192933
 C         -2.0885028736        0.8127082355       -0.1452164348
 C         -0.7853599188        1.2403994058       -0.3461543579
 H         -0.2970945741        1.0456560108       -1.2903940774
 N         -2.7825357349        0.1319413569       -1.1675519536
 S         -3.2809841371       -1.4322256035       -0.7961269945
 O         -2.4069813209       -2.0454392268        0.1789673971
 O         -3.4042320871       -2.1107836930       -2.0678384276
 C         -4.9038345163       -1.1982514462       -0.1021759102
 C         -5.1787415060       -1.6459243183        1.1750572027
 C         -6.4499393565       -1.4519410098        1.6932541864
 C         -7.4175216232       -0.8177860777        0.9289877210
 C         -7.1256533123       -0.3764002357       -0.3532813845
 C         -5.8574659217       -0.5680400986       -0.8778283473
 H         -5.5889341175       -0.2442334433       -1.8695172589
 H         -7.8806731399        0.1163908709       -0.9442825604
 H         -8.4048736405       -0.6658980578        1.3355888613
 H         -6.6784461553       -1.7944222948        2.6897136144
 H         -4.3916766387       -2.1271899495        1.7333715942
 H         -2.2744763256        0.1240806461       -2.0417995810
 H         -3.7331337482        0.7206467470        1.2201121530
 H         -2.5124022158        1.9033631848        3.0143985385
 H         -0.1893437036        2.6419953708        2.6560814480
 H          1.7532841094        2.6257528569        1.4053706584
 C          1.4825706347        3.5200124533       -0.5082619814
 C          0.3721112867        4.0469935005       -1.3624052027
 C          0.8213565168        4.8217350362       -0.1624925524
 H          1.3716338660        5.7384280013       -0.3098979925
 H          0.1675659344        4.8293462601        0.6966407488
 H          0.6306047117        4.4092779340       -2.3457976980
 H         -0.5864367137        3.5544974006       -1.3208977788
 H          2.4789582507        3.5796537096       -0.9346478656
