  62
        -98.94414400
 C         -2.1985798083       -0.7830974005       -0.0266566897
 C         -2.9048027924       -0.0924349790        0.9859096693
 C         -3.6913792911        1.0671952618        0.5449368428
 C         -3.6663022636        1.4228620892       -0.7528848073
 C         -4.4576501358        2.5509770846       -1.3473991235
 C         -5.8233506791        2.0650077854       -1.8526980640
 C         -6.5945618240        1.2236328727       -0.8357691120
 H         -7.5531474152        0.9630557033       -1.2894852053
 H         -6.0556155075        0.2890249377       -0.6643683267
 C         -6.8390123309        1.9206383773        0.5099393812
 H         -6.7020533772        2.9970553913        0.4004003857
 H         -7.8765731255        1.7545768547        0.8071747799
 C         -5.9619322982        1.4128327555        1.6559181336
 H         -6.0247760802        0.3230105360        1.7102750990
 H         -6.3617764913        1.8103775231        2.5926144342
 C         -4.4810084633        1.8069779898        1.5880538712
 H         -4.3935399081        2.8862533667        1.4459688977
 H         -4.0240899103        1.5495382123        2.5484355148
 H         -6.4176719764        2.9368238805       -2.1320131421
 H         -5.6653729680        1.4596726327       -2.7481624152
 H         -4.5915024867        3.3290609166       -0.5982930768
 H         -3.8940336163        2.9606013613       -2.1873192298
 O         -2.9425022212        0.7592932579       -1.6898871685
 C         -2.1978398974       -0.3634487798       -1.3572923447
 O         -1.5912801346       -0.8797597247       -2.3133774476
 H          0.0567842162        0.1751843736        0.8554220912
 C          0.6622560206       -0.5799232269        0.3678094580
 C          0.0762863799       -1.7897681140        0.0150975636
 C          0.8697539402       -2.7542040425       -0.5916646305
 C          2.2046752282       -2.4993350569       -0.8555111032
 C          2.7769665850       -1.2863553701       -0.5212661130
 C          1.9968887274       -0.3191257946        0.0994801070
 N          2.5664579356        0.9221083377        0.4355740812
 S          3.9915118041        0.9243560766        1.3248197448
 O          4.0918778328       -0.2467060148        2.1648425980
 O          4.0126663034        2.2036068402        2.0002700084
 C          5.2706291560        0.9001102782        0.0868806426
 C          5.2749066683        1.9015413521       -0.8642098108
 C          6.2671175264        1.9008835973       -1.8314902705
 C          7.2341353692        0.9064824186       -1.8294786161
 C          7.2182642654       -0.0896179496       -0.8652425289
 C          6.2278244786       -0.0953880539        0.1046968158
 H          6.1717300242       -0.8522462720        0.8707481204
 H          7.9711641736       -0.8612987781       -0.8652382670
 H          8.0046712487        0.9083824827       -2.5841596003
 H          6.2825834862        2.6738919324       -2.5828826967
 H          4.5075557812        2.6568776034       -0.8287915064
 H          1.9056581609        1.5774403531        0.8273196062
 H          3.8135744817       -1.0820375973       -0.7332894408
 H          2.8071169751       -3.2562326397       -1.3339712363
 H          0.4425004331       -3.7055217216       -0.8625937157
 C         -1.3802726096       -2.0045006442        0.3479905889
 H         -1.4665725294       -2.0899966238        1.4422365111
 C         -1.9703501852       -3.2479438749       -0.2841814322
 C         -1.8398865795       -4.5778687042        0.3943077383
 C         -3.1671399049       -3.8837813638        0.3551717362
 H         -3.9421051397       -4.2827195321       -0.2819870781
 H         -3.5386623686       -3.4359950778        1.2656416296
 H         -1.3128880297       -4.6092653427        1.3360448284
 H         -1.7058973320       -5.4577709193       -0.2166136314
 H         -1.9386820213       -3.2172553848       -1.3675001219
 O         -2.8727091075       -0.4256577435        2.2025886882
