  62
        -98.94291432
 C         -2.6523555585       -1.1834234148        0.2520343853
 C         -2.7733496750       -0.3301903477       -0.8714841951
 C         -3.7741546192        0.7425556352       -0.7606185166
 C         -4.5148619952        0.8509616125        0.3564321157
 C         -5.5188255042        1.9336516617        0.6231820096
 C         -4.8700626182        3.1264154433        1.3397150559
 C         -3.5774208236        3.6131367327        0.6844473778
 H         -3.2284318208        4.4757931411        1.2560325772
 H         -2.8149389948        2.8362512090        0.7785769114
 C         -3.7224326381        4.0041531876       -0.7929501896
 H         -3.2000651177        4.9488101157       -0.9582018831
 H         -4.7736991844        4.1697311914       -1.0312014796
 C         -3.1339539853        2.9921576519       -1.7778878359
 H         -3.0927751388        3.4620111870       -2.7643125066
 H         -2.1078542176        2.7522151069       -1.4870269300
 C         -3.9120238585        1.6787127412       -1.9286199422
 H         -4.9635040659        1.8943093060       -2.1280426089
 H         -3.5014679526        1.1461361334       -2.7915162205
 H         -4.6424164162        2.8308895392        2.3664575703
 H         -5.5931379859        3.9433309304        1.3734162733
 H         -5.9576482639        2.2564743035       -0.3188538604
 H         -6.3055441100        1.5235792328        1.2585820298
 O         -4.3921695916       -0.0014006264        1.4045456134
 C         -3.4613780346       -1.0235179926        1.3832275940
 O         -3.4521597596       -1.7236977091        2.4151071435
 H         -0.0710055584       -0.7260158509       -1.1643337080
 C          0.4130277786       -1.0259838834       -0.2466270103
 C         -0.2678682260       -1.8450092403        0.6426744908
 C          0.3660548407       -2.2149648056        1.8231442866
 C          1.6467046817       -1.7716917708        2.1033968064
 C          2.3182726361       -0.9476545747        1.2180465795
 C          1.6936936653       -0.5716930895        0.0360089403
 N          2.3508506514        0.2880974989       -0.8596292433
 S          3.9385229524       -0.0444628777       -1.2837247957
 O          4.1318098444        0.5954218392       -2.5664767092
 O          4.2198330802       -1.4602841891       -1.2233162725
 C          4.8974359453        0.8207141163       -0.0575006308
 C          4.6555694898        2.1680934149        0.1257985529
 C          5.4017176869        2.8600520652        1.0662247160
 C          6.3737658602        2.1977240504        1.8013195407
 C          6.6065424203        0.8454030990        1.6035963783
 C          5.8629105027        0.1472136860        0.6647202649
 H          6.0055362654       -0.9057546067        0.4805897412
 H          7.3626336378        0.3324296982        2.1759868896
 H          6.9528606743        2.7390933218        2.5326766465
 H          5.2229378196        3.9116543410        1.2230220133
 H          3.8934403263        2.6459505514       -0.4670347211
 H          1.7975330550        0.5208308078       -1.6719004164
 H          3.3147729336       -0.5976085977        1.4327405300
 H          2.1267785246       -2.0679301071        3.0236106887
 H         -0.1572683053       -2.8461566643        2.5267364904
 C         -1.6615362850       -2.3359144987        0.3276623065
 H         -1.9953639064       -2.9536217677        1.1719397137
 C         -1.6604285170       -3.1988668456       -0.9200552725
 C         -1.1612937599       -4.6079315609       -0.8270194653
 C         -2.6233780995       -4.3413464567       -1.0215867931
 H         -3.0665251754       -4.5575789066       -1.9821185616
 H         -3.2881462730       -4.5097386839       -0.1865721920
 H         -0.8350483734       -4.9601957801        0.1398965268
 H         -0.5954070504       -5.0093133272       -1.6538603265
 H         -1.4475988170       -2.6483632274       -1.8268510195
 O         -2.0913146791       -0.4322723157       -1.9277239234
