  62
        -98.93826522
 C         -2.4892495894       -1.3696342801        0.1485067304
 C         -2.5876779195       -0.3579331503       -0.8331676298
 C         -3.5188730396        0.7569690697       -0.5563909100
 C         -4.2149511896        0.7585014198        0.5948881600
 C         -5.1857131597        1.7900104499        1.1058287597
 C         -4.4884181698        3.0499979600        1.6416611795
 C         -3.3644633398        3.5858561399        0.7589414895
 H         -2.8915255699        4.4163376901        1.2900675893
 H         -2.6035595297        2.8124345700        0.6340603296
 C         -3.8020492198        4.0970884597       -0.6117774106
 H         -4.5414837199        4.8899545396       -0.4790953108
 H         -2.9221348799        4.5395939597       -1.0863187407
 C         -4.3770756597        3.0478470995       -1.5661558805
 H         -5.4068405797        2.8081105394       -1.3155134904
 H         -4.3962513797        3.4939177793       -2.5648290505
 C         -3.5512398796        1.7702917295       -1.6756699002
 H         -3.8804188096        1.2163891893       -2.5631595001
 H         -2.5061550596        2.0365053596       -1.8745613702
 H         -4.0586618798        2.8106589702        2.6174094196
 H         -5.2419689499        3.8261607300        1.7855103894
 H         -5.9031202597        2.0450678297        0.3316025397
 H         -5.7336496696        1.3215518400        1.9264094198
 O         -4.0850384795       -0.2371170100        1.5173321701
 C         -3.2331343994       -1.3039931999        1.3306257403
 O         -3.2284711294       -2.1270960798        2.2677373605
 H          0.1250483906       -1.0929864502       -1.5008936696
 C          0.5786582706       -1.3876170000       -0.5665937396
 C         -0.1486799493       -2.1572306199        0.3299380305
 C          0.4357567707       -2.4887936196        1.5472813306
 C          1.7154767406       -2.0612350994        1.8542157006
 C          2.4351645406       -1.2898329195        0.9588531204
 C          1.8545515206       -0.9427234898       -0.2535346196
 N          2.5684556405       -0.1390238499       -1.1635893998
 S          3.1466952804        1.3284974403       -0.5812334700
 O          2.3463983903        1.8163493304        0.5191618399
 O          3.2440525404        2.1906407701       -1.7391751202
 C          4.7896824204        0.9345763605       -0.0178493499
 C          5.6648717705        0.3621960704       -0.9203008598
 C          6.9493070905        0.0529855606       -0.5025947997
 C          7.3357608505        0.3226472209        0.8020282303
 C          6.4465135804        0.9008082309        1.6948685401
 C          5.1594510804        1.2115063108        1.2835599601
 H          4.4316393703        1.6562469108        1.9436310100
 H          6.7486431304        1.1100673611        2.7084976001
 H          8.3360630705        0.0809317210        1.1249605703
 H          7.6437944406       -0.3964289895       -1.1939803796
 H          5.3251482905        0.1732872802       -1.9248755598
 H          2.0666931505        0.0092688999       -2.0285571298
 H          3.4285468106       -0.9450934094        1.1960319604
 H          2.1560024006       -2.3275139592        2.8029665806
 H         -0.1317055593       -3.0683351995        2.2613709107
 C         -1.5666136093       -2.5739130400        0.0199617706
 H         -1.8883455092       -3.2734755599        0.8027634107
 C         -1.6836986692       -3.2697278103       -1.3213520193
 C         -1.2039311891       -4.6830716703       -1.4489907990
 C         -2.6720088991       -4.3837653104       -1.4816767391
 H         -3.1984336291       -4.4732671606       -2.4200942291
 H         -3.2676748791       -4.6511848403       -0.6208271191
 H         -0.7195959990       -4.9813077504       -2.3660279690
 H         -0.8035655591       -5.1557062301       -0.5649010489
 H         -1.5437614192       -2.6100369804       -2.1670819394
 O         -1.9389246894       -0.3530332504       -1.9152349298
