  62
        -98.93761760
 C         -2.5908701932       -1.1471585884        0.2311692292
 C         -2.7419254021       -0.3035459526       -0.8947756997
 C         -3.6029193275        0.8778319691       -0.7099534370
 C         -4.1842752610        1.0933639148        0.4825048820
 C         -5.1259044327        2.2032497005        0.8779889313
 C         -4.7744779330        3.6258251854        0.4191294188
 C         -3.2715629642        3.9233085775        0.3122726932
 H         -2.6966652372        3.1265749887        0.7882131717
 H         -3.0540695337        4.8469023947        0.8522290271
 C         -2.7989170520        4.1022996630       -1.1327599503
 H         -1.8577342085        4.6573018292       -1.1274949918
 H         -3.5331311549        4.7094288051       -1.6667025624
 C         -2.5575297225        2.8098345161       -1.9121306445
 H         -1.6682917558        2.3028103290       -1.5268446828
 H         -2.3464856144        3.0780668192       -2.9499237671
 C         -3.7149170229        1.7980684586       -1.8911353960
 H         -3.6217754609        1.1642515972       -2.7769908830
 H         -4.6788734847        2.2999779933       -1.9212147845
 H         -5.2301020823        4.3099565130        1.1369350192
 H         -5.2432249428        3.8240548096       -0.5437031763
 H         -6.1250593961        1.9467153231        0.5144326513
 H         -5.1623782988        2.1687959638        1.9695396582
 O         -4.0010602620        0.2569998968        1.5448350338
 C         -3.1995759998       -0.8681919880        1.4522414008
 O         -3.1049713218       -1.5228645918        2.5117702593
 H         -0.3031725168       -0.3179297456        1.0512594047
 C          0.2742581946       -0.8967374268        0.3390127585
 C         -0.3077988803       -2.0096280930       -0.2555133129
 C          0.4530477430       -2.7522275847       -1.1490219370
 C          1.7504632897       -2.3742096510       -1.4494088650
 C          2.3167713947       -1.2538642381       -0.8704721197
 C          1.5695108256       -0.5098956737        0.0333335625
 N          2.1363875135        0.6370353165        0.6227163210
 S          3.5756653781        0.4302010259        1.4682899550
 O          3.6719269837       -0.8999217937        2.0248937832
 O          3.6217778977        1.5264513432        2.4114753449
 C          4.8384563618        0.6691581458        0.2366489457
 C          4.8543323131        1.8627513098       -0.4582096700
 C          5.8369270629        2.0667880588       -1.4137698966
 C          6.7832512240        1.0814601341       -1.6539909402
 C          6.7555551720       -0.1098109636       -0.9451584305
 C          5.7742131221       -0.3212604051        0.0109368906
 H          5.7086333599       -1.2332736475        0.5823853389
 H          7.4921709342       -0.8742750562       -1.1331187293
 H          7.5468969387        1.2432336908       -2.3982772805
 H          5.8615131465        2.9916744088       -1.9671970652
 H          4.1036061195        2.6033595904       -0.2381292751
 H          1.4821188909        1.1616710276        1.1856756756
 H          3.3228595505       -0.9505344467       -1.1098260519
 H          2.3274632734       -2.9588982942       -2.1493574627
 H          0.0285898681       -3.6274535561       -1.6126832642
 C         -1.7178742651       -2.3838028181        0.1356562072
 H         -1.6829996157       -2.8110055202        1.1495514098
 C         -2.3522927697       -3.3954799351       -0.7971286460
 C         -2.1669464870       -4.8638973620       -0.5640357370
 C         -3.4937181917       -4.2234057189       -0.2909289091
 H         -4.3168180471       -4.4312606896       -0.9578794343
 H         -3.7920260030       -4.0773933634        0.7375150378
 H         -1.5677604555       -5.1651424057        0.2821172168
 H         -2.0824223781       -5.5156919410       -1.4205272568
 H         -2.4065711780       -3.0389800804       -1.8192097575
 O         -2.1915155226       -0.5253243335       -2.0034239631
