  62
        -98.94064047
 C         -2.2641619982       -1.0653316019        0.3799690904
 C         -2.5443121512       -0.1408816571       -0.6562475289
 C         -3.4713699902        0.9462394776       -0.3075849441
 C         -3.9381995098        1.0607083970        0.9478530987
 C         -4.8636415264        2.1313733529        1.4585275728
 C         -6.3491799858        1.8487334547        1.1948719331
 C         -6.7927149663        2.0012888216       -0.2606846262
 H         -7.8844048631        1.9890087445       -0.2653536183
 H         -6.4765001837        2.9753645334       -0.6352203803
 C         -6.2831912284        0.8970200695       -1.1973616430
 H         -5.9483967405        0.0427979233       -0.6042888094
 H         -7.1037081257        0.5470873533       -1.8277611957
 C         -5.1495489005        1.3280333716       -2.1280612636
 H         -5.5120895938        2.0943581794       -2.8167162843
 H         -4.8431100109        0.4615319355       -2.7196061113
 C         -3.9096328232        1.8696811750       -1.4044733903
 H         -3.0929488535        1.9399747415       -2.1273260147
 H         -4.1097243298        2.8646179985       -1.0071814470
 H         -6.5788378883        0.8387780808        1.5423048887
 H         -6.9262931045        2.5486416739        1.8034428185
 H         -4.7091051972        2.1850324615        2.5383910337
 H         -4.5904629362        3.0922209507        1.0211638575
 O         -3.5914694402        0.1917449783        1.9343172295
 C         -2.7784425960       -0.8967365564        1.6694657298
 O         -2.5858230407       -1.6390315970        2.6532618598
 O         -2.0577329451       -0.1956642233       -1.8158101136
 C         -1.3877510365       -2.2943967850        0.1892092790
 C          0.0660895661       -1.9486305509        0.3830297818
 C          0.8474008235       -2.6243233138        1.3122666797
 C          2.1761130382       -2.2820228223        1.4950169991
 C          2.7516163202       -1.2651126027        0.7544617147
 C          1.9765643709       -0.5779385115       -0.1708055055
 C          0.6450984125       -0.9222554299       -0.3513299628
 H          0.0442233826       -0.3872211764       -1.0724814379
 N          2.5521424148        0.4534253442       -0.9351844084
 S          3.3733444210        1.6666617422       -0.1128914258
 O          2.8615408717        1.8371666439        1.2280040384
 O          3.3114947956        2.8239468834       -0.9786871580
 C          5.0528880690        1.0764345317       -0.0577611959
 C          5.6717823380        0.7634450686       -1.2523113729
 C          6.9799362764        0.3071129643       -1.2285195206
 C          7.6446357195        0.1757604230       -0.0181870911
 C          7.0110046643        0.4986078751        1.1719862974
 C          5.7017089037        0.9542433180        1.1552877473
 H          5.1665224469        1.2118580036        2.0555303186
 H          7.5293442994        0.3968943948        2.1119156763
 H          8.6626484682       -0.1801792666       -0.0023846493
 H          7.4761025459        0.0553226501       -2.1519408787
 H          5.1213472422        0.8839230085       -2.1703800240
 H          1.9100955303        0.8539907394       -1.6049205493
 H          3.7854644290       -0.9940652891        0.8931939691
 H          2.7709268332       -2.8132233789        2.2222412525
 H          0.4014065495       -3.4095402328        1.9050882360
 H         -1.6754552055       -2.9763700630        1.0046274822
 C         -1.6671494333       -3.0155340845       -1.1239463085
 C         -0.6771002330       -3.1339058228       -2.2400732689
 C         -1.0047960101       -4.3321524671       -1.4044610316
 H         -1.5928847648       -5.1264797867       -1.8383703713
 H         -0.2573236993       -4.6672170379       -0.7010582568
 H         -1.0569350522       -3.0813622074       -3.2491260569
 H          0.2925925792       -2.6782610188       -2.1173165222
 H         -2.7079901552       -2.9252827902       -1.4182093868
