  62
        -98.93983879
 C          1.8288621786        1.0287119249        0.4698461128
 C          2.3742103182       -0.0742815799        1.1767703730
 C          3.8274293538       -0.2507349747        1.0903916023
 C          4.5632229052        0.6298467364        0.3887302093
 C          6.0583749275        0.6032768047        0.2222956630
 C          6.5445120474       -0.3256408281       -0.8985734895
 C          6.4376203349       -1.8210641543       -0.5971510406
 H          7.0096207373       -2.3444951879       -1.3658537788
 H          6.9118907780       -2.0325531456        0.3617235135
 C          5.0024088987       -2.3661624840       -0.5947382054
 H          4.3412558620       -1.6581115376       -1.0999508706
 H          4.9653120003       -3.2983499603       -1.1630340238
 C          4.4380823805       -2.6617336453        0.7951049586
 H          5.0105231522       -3.4676704757        1.2599782625
 H          3.4062161889       -3.0046416286        0.6804549880
 C          4.4328831295       -1.4559490301        1.7437749999
 H          3.8195455752       -1.7062545119        2.6130302605
 H          5.4461080094       -1.2380201165        2.0812173708
 H          5.9854271761       -0.0970518272       -1.8087631487
 H          7.5946306215       -0.0891586613       -1.0848583513
 H          6.3622705784        1.6237706110       -0.0203959291
 H          6.5266999463        0.3154842595        1.1639610390
 O          4.0097146981        1.6900634607       -0.2528445805
 C          2.6351708546        1.9067006893       -0.2565262349
 O          2.2928392126        2.8987154323       -0.9243251196
 O          1.6752248844       -0.8702063901        1.8607391748
 C          0.3215519674        1.2030567259        0.5415608004
 C         -0.3450917278        0.4997792974       -0.6130131523
 C          0.0063336115        0.7901490054       -1.9288320710
 C         -0.6027330353        0.1276077306       -2.9779388346
 C         -1.5742895845       -0.8287655748       -2.7388914581
 C         -1.9254323470       -1.1333640264       -1.4288600997
 C         -1.3128915332       -0.4655425623       -0.3754067729
 H         -1.5716422618       -0.7334484625        0.6379304067
 N         -2.8901133732       -2.1117148889       -1.1661659114
 S         -3.8435271203       -2.0718811601        0.1972361922
 O         -3.0926404333       -2.4798109202        1.3576397817
 O         -4.9788739686       -2.9030329058       -0.1424782412
 C         -4.3791488008       -0.3795013211        0.3827648729
 C         -4.3466204006        0.1993157458        1.6351752911
 C         -4.8015493223        1.4999453249        1.7873335901
 C         -5.2738248947        2.1987122081        0.6872199555
 C         -5.2980896623        1.6044570352       -0.5650843465
 C         -4.8520304915        0.3020443759       -0.7214236523
 H         -4.8687751128       -0.1851849831       -1.6824330423
 H         -5.6622257157        2.1517318933       -1.4193915411
 H         -5.6205297847        3.2127078548        0.8066024655
 H         -4.7791976714        1.9630138900        2.7607665404
 H         -3.9586714556       -0.3750723008        2.4615578784
 H         -3.3670853752       -2.4881669192       -1.9710164293
 H         -2.0473712480       -1.3474814835       -3.5585899295
 H         -0.3210249028        0.3604180049       -3.9937708776
 H          0.7622770726        1.5378460586       -2.1148696526
 H          0.0253828113        0.6726630479        1.4608889199
 C         -0.1112184480        2.6551101104        0.6936187482
 C         -0.9132669955        3.3972099322       -0.3295395694
 C         -1.5536411734        2.9733551745        0.9554498517
 H         -1.7931476964        3.7250595381        1.6917654969
 H         -2.2530903111        2.1513919339        0.9170312206
 H         -0.6822622409        4.4407844035       -0.4782593929
 H         -1.1957476953        2.8814288137       -1.2330851092
 H          0.6224678516        3.2392268736        1.2394461475
