  62
        -98.94007683
 C          2.2507010168        0.9680230262        0.3897396563
 C          2.3222898047       -0.1215352680       -0.5136051919
 C          3.2435623413       -1.2058507649       -0.1347433040
 C          3.8934905165       -1.1453058975        1.0407489218
 C          4.9007802208       -2.1491633010        1.5197590379
 C          6.3220577280       -1.7554514422        1.0932208178
 C          6.4462152887       -1.3972465728       -0.3878295585
 H          5.8780246222       -0.4848381538       -0.5832468237
 H          7.4966316540       -1.1676621463       -0.5793266182
 C          5.9796950508       -2.4992598862       -1.3493405971
 H          6.7151359684       -2.5985837671       -2.1503973531
 H          5.9401539704       -3.4551632987       -0.8258263094
 C          4.6291003716       -2.2299289642       -2.0156279183
 H          4.5004414120       -2.9511821248       -2.8269177473
 H          4.6346818124       -1.2327365135       -2.4629949254
 C          3.4006423328       -2.3435849672       -1.1039596622
 H          2.5102376509       -2.3191816676       -1.7391537375
 H          3.4208128551       -3.2995397866       -0.5767958594
 H          6.9938966736       -2.5833307688        1.3269230134
 H          6.6328664710       -0.8893669894        1.6823554301
 H          4.6482994258       -3.1291222268        1.1193703552
 H          4.8555753416       -2.1890185790        2.6094962843
 O          3.7329527689       -0.1233937247        1.9212477396
 C          2.9172024442        0.9542964490        1.6171947736
 O          2.8565619818        1.8181893840        2.5159477144
 O          1.6615833140       -0.1973117528       -1.5802173343
 C          1.3699221166        2.1738975986        0.1119605060
 C          0.0056325391        1.7252857683       -0.3536354801
 C         -0.5786530931        2.1303193575       -1.5456789163
 C         -1.8441224193        1.6877181106       -1.8904015544
 C         -2.5512298535        0.8368256473       -1.0618429822
 C         -1.9777418339        0.4273152663        0.1351081867
 C         -0.7149308057        0.8797925725        0.4821815455
 H         -0.2679582797        0.5612289901        1.4174090764
 N         -2.6840229209       -0.4512467512        0.9777029791
 S         -4.2456419506       -0.0225970001        1.4229497332
 O         -4.4139800977        1.4123184424        1.4444320219
 O         -4.4875631738       -0.7157936069        2.6699156733
 C         -5.2678824411       -0.7392962616        0.1539535789
 C         -6.1550398647        0.0545593392       -0.5461589699
 C         -6.9496287358       -0.5283072673       -1.5212344977
 C         -6.8441199804       -1.8870064691       -1.7762555983
 C         -5.9493131794       -2.6706143827       -1.0626073743
 C         -5.1527274482       -2.0945309861       -0.0860684779
 H         -4.4466324020       -2.6675943091        0.4916060622
 H         -5.8693190019       -3.7267048691       -1.2642711778
 H         -7.4624833105       -2.3384604479       -2.5359442316
 H         -7.6455952294        0.0789954301       -2.0772672468
 H         -6.1977678659        1.1074054894       -0.3171665528
 H         -2.1564427932       -0.7464863319        1.7864963707
 H         -3.5335194557        0.4848019831       -1.3316898970
 H         -2.2835051841        2.0055623616       -2.8236098009
 H         -0.0362710643        2.7759448352       -2.2163359460
 H          1.2381518034        2.6597642448        1.0937702355
 C          2.0092473844        3.2122076147       -0.7985484001
 C          3.4994401167        3.3538160977       -0.8797295641
 C          2.7304812837        2.8399012513       -2.0576792343
 H          2.6241211727        3.4843336625       -2.9181001764
 H          2.7968871416        1.7920392403       -2.3024478532
 H          3.9175476983        4.3481407357       -0.9281623061
 H          4.1000672189        2.6566509880       -0.3130435928
 H          1.4406300378        4.1369927683       -0.8165165861
