  62
        -98.93984177
 C         -2.6224205857       -1.3347266479        0.2963216735
 C         -2.8631407307       -0.5032852676       -0.8254105486
 C         -3.9115221541        0.5137369041       -0.6528404377
 C         -4.5749400642        0.6113390656        0.5125394915
 C         -5.6785487596        1.5835594714        0.8294559322
 C         -5.1833510671        2.9642392417        1.2811498440
 C         -4.5843545458        3.8337103640        0.1750142368
 H         -5.2829741016        3.8891266974       -0.6604359846
 H         -4.4809563135        4.8420500370        0.5805818988
 C         -3.2130699797        3.3624924108       -0.3292545155
 H         -2.7756324425        2.6707708556        0.3946715665
 H         -2.5379706902        4.2182261905       -0.4019590562
 C         -3.2407225322        2.6904390634       -1.7021054797
 H         -3.5565696576        3.4131758589       -2.4578415483
 H         -2.2248297850        2.3709838762       -1.9490223739
 C         -4.1574379523        1.4629075391       -1.7873411743
 H         -5.2015822794        1.7744599241       -1.8024803172
 H         -3.9359595818        0.9342234648       -2.7178853528
 H         -4.4474094610        2.8281301229        2.0768747817
 H         -6.0388497576        3.4938589402        1.7064166793
 H         -6.3298357347        1.6948497116       -0.0379132215
 H         -6.2561714498        1.1414557444        1.6440237273
 O         -4.3173760311       -0.2074641975        1.5662552747
 C         -3.3374646017       -1.1811838592        1.4888201878
 O         -3.2024523120       -1.8505649807        2.5322937350
 H         -0.2602575099       -0.4087302750       -0.8638211543
 C          0.3218363305       -0.8670047194       -0.0774367316
 C         -0.2146403753       -1.9350662409        0.6289071678
 C          0.5536586473       -2.5261522381        1.6246230277
 C          1.8264209396       -2.0584423062        1.9025776082
 C          2.3570413861       -0.9945086141        1.1955244726
 C          1.5974156637       -0.3965135651        0.1983128125
 N          2.1274393088        0.6899955186       -0.5227450909
 S          3.6143540361        0.4570646429       -1.2721736122
 O          3.6459757608        1.4058325498       -2.3633817954
 O          3.8167441143       -0.9306773758       -1.6197589542
 C          4.7960836220        0.9556041442       -0.0372979652
 C          4.6768745493        2.2205352428        0.5045534369
 C          5.5948584706        2.6280708931        1.4592223371
 C          6.6121147715        1.7702663159        1.8510718314
 C          6.7199313706        0.5047561434        1.2950085730
 C          5.8042176588        0.0903369710        0.3402114081
 H          5.8439593392       -0.8862950677       -0.1151902177
 H          7.5112610342       -0.1603711294        1.6012034599
 H          7.3247860031        2.0902268272        2.5947615761
 H          5.5141523365        3.6112035166        1.8944325861
 H          3.8734707872        2.8560005623        0.1706948095
 H          1.4689149285        1.0868727339       -1.1783249768
 H          3.3478125944       -0.6265647695        1.4067421070
 H          2.4117184216       -2.5265099169        2.6791679881
 H          0.1426232891       -3.3516186149        2.1873149788
 C         -1.5918251661       -2.4527345314        0.3017723241
 H         -1.8982073131       -3.1170871813        1.1248233792
 C         -1.6208891582       -3.2798348345       -0.9786724147
 C         -0.5035752385       -3.3230826681       -1.9737067718
 C         -0.7670565046       -4.5076068735       -1.0962198559
 H         -1.1936684930       -5.3966340493       -1.5352871600
 H         -0.0640511929       -4.7002469115       -0.2997076658
 H         -0.7690148534       -3.3784051579       -3.0187535149
 H          0.3828223625       -2.7361414167       -1.7868055572
 H         -2.6235012647       -3.3482284885       -1.3889659985
 O         -2.2499224438       -0.5843450393       -1.9221365126
