  62
        -98.94521217
 C          2.0786856985        1.4633104071       -0.0095563411
 C          1.8928542887        0.4705011510       -1.0019159106
 C          2.7892947344       -0.6930519723       -0.9207192323
 C          3.6980620878       -0.7647447810        0.0681761076
 C          4.6232410822       -1.9223201781        0.3038099674
 C          3.9925754377       -2.9548569782        1.2488980438
 C          2.5709876716       -3.3636488647        0.8618755991
 H          2.2485260994       -4.1209494302        1.5795174598
 H          1.9068878037       -2.5040493253        0.9780904477
 C          2.4367424322       -3.9164074471       -0.5637829668
 H          3.4163362381       -4.2148645729       -0.9389651215
 H          1.8154858792       -4.8137934303       -0.5373184966
 C          1.7860238160       -2.9516901223       -1.5565665017
 H          1.5420639547       -3.5106342521       -2.4637961205
 H          0.8499047768       -2.5721333556       -1.1402202479
 C          2.6424891308       -1.7516359893       -1.9776780517
 H          3.6226156862       -2.0955902120       -2.3145284968
 H          2.1412393269       -1.2662645750       -2.8201692221
 H          3.9652704323       -2.5306468649        2.2552532571
 H          4.6343551684       -3.8376116520        1.2703832067
 H          4.8662585071       -2.3872015957       -0.6497349256
 H          5.5409664186       -1.5422380060        0.7558384960
 O          3.8437363422        0.2042620484        1.0071771088
 C          3.0443183812        1.3324083173        0.9937971200
 O          3.2868484591        2.1411084051        1.9118264950
 H         -0.9060073652        1.7666186837       -1.3520386616
 C         -1.1299364477        1.9051961261       -0.3060754402
 C         -0.1475705984        2.3899795845        0.5447152423
 C         -0.4427457706        2.5185096946        1.8981690141
 C         -1.6959913218        2.1875602851        2.3809008624
 C         -2.6776776531        1.7148952834        1.5275757374
 C         -2.3847257689        1.5586866753        0.1786652450
 N         -3.3649418394        1.0768354774       -0.7073600919
 S         -4.2585881245       -0.2841865923       -0.3335346054
 O         -4.9543608003       -0.6211811460       -1.5538933278
 O         -5.0841380478       -0.0090127076        0.8158580098
 C         -3.0805509641       -1.5632251655        0.0619783560
 C         -2.6654486917       -2.4115907223       -0.9452700762
 C         -1.7417438506       -3.4011577999       -0.6517932283
 C         -1.2386794622       -3.5148469463        0.6354160666
 C         -1.6581124079       -2.6495267668        1.6334973380
 C         -2.5916107820       -1.6653939129        1.3490633600
 H         -2.9514061095       -0.9874244859        2.1050047195
 H         -1.2630344804       -2.7385540669        2.6329033641
 H         -0.5149018714       -4.2816038405        0.8616343844
 H         -1.4152478416       -4.0771926583       -1.4256884912
 H         -3.0843811428       -2.2917937542       -1.9314207951
 H         -3.0439333497        1.0264617319       -1.6635840212
 H         -3.6620798710        1.4620614659        1.8870806461
 H         -1.9141055692        2.3032419606        3.4319517075
 H          0.3256513584        2.8747367489        2.5698204683
 C          1.2355535340        2.7291578319        0.0429955289
 H          1.7141085321        3.3707920385        0.7944809027
 C          1.2197686237        3.4706265726       -1.2786188565
 C          0.7587787833        4.8957936345       -1.3049124174
 C          2.2076794289        4.5723626723       -1.5099083143
 H          2.6284215991        4.6878804924       -2.4976275032
 H          2.9000212601        4.8001232136       -0.7123474097
 H          0.1823771832        5.2369333340       -2.1511857144
 H          0.4672497329        5.3423574616       -0.3661488954
 H          0.9753150314        2.8451803701       -2.1269292580
 O          1.0342826646        0.5350385353       -1.9215560436
