  62
        -98.93057404
 C         -1.5641939201       -0.7497932901       -0.4251426502
 C         -2.8831674901       -1.2476122700       -0.5626596603
 C         -3.9597804902       -0.5337161399        0.1488691595
 C         -3.6340919602        0.5313706701        0.9042366495
 C         -4.5475539202        1.4317018302        1.6931877894
 C         -5.3257387700        2.4155753102        0.8049721693
 C         -5.9215168199        1.8057669902       -0.4610353208
 H         -6.3512969098        2.6195966202       -1.0510990809
 H         -5.1213270299        1.3620316101       -1.0560521607
 C         -7.0175136600        0.7682233103       -0.2299051208
 H         -7.4146815800        0.4921612402       -1.2101778509
 H         -7.8298065701        1.2252736503        0.3397098991
 C         -6.5845750702       -0.5144332397        0.4835756093
 H         -7.3876813602       -1.2458663397        0.3536208592
 H         -6.4841224503       -0.3547636297        1.5537751793
 C         -5.3175008902       -1.1555251798       -0.0736768306
 H         -5.2406447003       -2.1762742898        0.3202600595
 H         -5.4227568101       -1.2751232599       -1.1581126706
 H         -6.1198540201        2.8657517503        1.4031049092
 H         -4.6404855799        3.2101555101        0.5002987193
 H         -5.2257286803        0.8372717803        2.2983137693
 H         -3.9117231502        2.0044959102        2.3716967194
 O         -2.3498687402        0.9684795100        1.0201196996
 C         -1.2855120101        0.3621196099        0.3709551198
 O         -0.1908894601        0.9063950298        0.5957871198
 H          1.8742956299       -0.2452718503       -0.2275077599
 C          1.7027508598       -1.2255598403        0.1762468201
 C          0.5887113098       -1.9637204903       -0.1916199399
 C          0.3889344696       -3.1996003902        0.4245680601
 C          1.2733335895       -3.6809184002        1.3696127402
 C          2.3987001295       -2.9507580003        1.7092893403
 C          2.6085891597       -1.7178831503        1.1069318402
 N          3.7289106097       -0.9387429304        1.4309013703
 S          4.5265963999       -0.1146795405        0.2140999604
 O          4.4578783699       -0.8336870106       -1.0375920396
 O          5.8588063798        0.1054843994        0.7396238305
 C          3.7024500100        1.4552341495        0.0783912902
 C          3.3017053999        2.1001714796        1.2307832401
 C          2.6978903800        3.3418427097        1.1250363200
 C          2.5135992402        3.9178435896       -0.1223837100
 C          2.9262842602        3.2590740195       -1.2694244300
 C          3.5272596701        2.0142947495       -1.1713320798
 H          3.8455866902        1.4600545494       -2.0399438698
 H          2.7756097804        3.7043083595       -2.2398675300
 H          2.0396441302        4.8837167596       -0.2011343901
 H          2.3670764499        3.8537621997        2.0143361100
 H          3.4541181698        1.6209988997        2.1834728202
 H          4.3714583096       -1.3595104704        2.0858353704
 H          3.1021524794       -3.3265564603        2.4369472304
 H          1.0937496794       -4.6374538002        1.8369055402
 H         -0.4843911504       -3.7793061702        0.1588528400
 C         -0.4633002401       -1.5009707902       -1.1654563801
 H         -0.9703578601       -2.4109203602       -1.5230803501
 C         -0.0408206699       -0.7630173603       -2.4310194301
 C          0.6300146202        0.5763199596       -2.4702023801
 C          1.3660766601       -0.6443307304       -2.9356501299
 H          1.5267525702       -0.7616726205       -3.9977835799
 H          2.1768177100       -1.0247325205       -2.3331731298
 H          0.9005120501        1.0398337697       -1.5355821001
 H          0.2907397003        1.2834606796       -3.2142732001
 H         -0.7972726799       -0.9085590303       -3.1990597901
 O         -3.1625524601       -2.2595976000       -1.2630037003
