  62
        -98.93802156
 C          0.9888060702        1.5234432580        0.7259270733
 C          1.3921407752        1.1873701838       -0.5879424002
 C          2.3794773120        0.0924402469       -0.7192540940
 C          2.8219305013       -0.5370445407        0.3844922799
 C          3.8618235343       -1.6220173335        0.5832425810
 C          4.5991333604       -2.2066732128       -0.6168949107
 C          3.7655581949       -3.1805533771       -1.4559534321
 H          4.2698234072       -3.3452751805       -2.4098750991
 H          3.7294529111       -4.1377677206       -0.9299945111
 C          2.3219354389       -2.7578718812       -1.7195228560
 H          1.7976649278       -3.5974226244       -2.1845955070
 H          1.8183105449       -2.5606624035       -0.7721251983
 C          2.1415164636       -1.5477715634       -2.6314290571
 H          1.0660471669       -1.3754414495       -2.7395804450
 H          2.5492644288       -1.7683356291       -3.6209952091
 C          2.7777776460       -0.2463058841       -2.1275871582
 H          3.8592499916       -0.2744653170       -2.2401362992
 H          2.4027486284        0.5705578756       -2.7522419587
 H          5.0003413535       -1.4024582331       -1.2274492213
 H          5.4559187590       -2.7605980199       -0.2246809271
 H          4.5988259325       -1.1859446437        1.2662739336
 H          3.3740050270       -2.4309247460        1.1367538628
 O          2.3566677016       -0.2130360773        1.6289914915
 C          1.4292563003        0.7936487285        1.8299477596
 O          1.0807502689        0.9365853003        3.0181465034
 H         -1.4534372996        0.4421757764        0.6368160186
 C         -1.8230283596        1.2411042435        0.0108144900
 C         -1.1957101324        2.4800566319        0.0594929551
 C         -1.6869480604        3.5030987718       -0.7398271827
 C         -2.7688265505        3.2775468641       -1.5737116596
 C         -3.3674191801        2.0330856287       -1.6425984712
 C         -2.8816156035        1.0014436530       -0.8475503622
 N         -3.4524450324       -0.2834082091       -0.8794873607
 S         -2.4209063561       -1.6038689166       -0.9798218301
 O         -1.2251504191       -1.2929909308       -1.7239560335
 O         -3.2492450049       -2.6630083598       -1.5194031266
 C         -2.0228814787       -2.0004523330        0.7086600315
 C         -3.0463194044       -2.3458726104        1.5681843534
 C         -2.7368073197       -2.6575122646        2.8825780084
 C         -1.4185985165       -2.6186810391        3.3119144087
 C         -0.4008399815       -2.2754059584        2.4350112001
 C         -0.7055159468       -1.9650090167        1.1199148635
 H          0.0517139418       -1.6756330611        0.4060138928
 H          0.6229720635       -2.2259980254        2.7717175279
 H         -1.1780411051       -2.8533614694        4.3367531050
 H         -3.5226669603       -2.9256208627        3.5701816781
 H         -4.0563994658       -2.3668026827        1.1944795340
 H         -4.2230890535       -0.3813098566       -1.5255591957
 H         -4.1966167096        1.8553448193       -2.3109211606
 H         -3.1403619628        4.0796462253       -2.1936239109
 H         -1.2115781851        4.4700834501       -0.7299210261
 C         -0.0244345660        2.6218850831        1.0007828343
 H         -0.3929558900        2.4115113730        2.0191702719
 C          0.5616747802        4.0256500795        1.0374925229
 C          2.0101814910        4.2527340946        1.3494323314
 C          1.4861372473        4.5376784945       -0.0244084399
 H          1.3923223521        5.5692516108       -0.3315693750
 H          1.7441315767        3.8644519024       -0.8261450656
 H          2.2726097867        5.0848244505        1.9854875503
 H          2.6353536204        3.3824601713        1.4884553750
 H         -0.1343124119        4.7423590985        1.4626108879
 O          0.9774686192        1.7822956980       -1.6155391647
