  62
        -98.94064830
 C          2.2612822936        1.0751403344        0.3834471852
 C          2.5454557967        0.1625081061       -0.6621261779
 C          3.4605675981       -0.9363575132       -0.3185073358
 C          3.9145037419       -1.0703168912        0.9397468916
 C          4.8220101428       -2.1578966122        1.4469506770
 C          6.3135252627       -1.8923231425        1.2001472945
 C          6.7684676889       -2.0353845538       -0.2528084969
 H          7.8602164911       -2.0381425792       -0.2474728630
 H          6.4423603865       -3.0009064325       -0.6407781908
 C          6.2825180061       -0.9140739388       -1.1817020492
 H          5.9536391643       -0.0621123467       -0.5821249355
 H          7.1135063411       -0.5683188647       -1.8005905997
 C          5.1519606289       -1.3193042643       -2.1275607839
 H          4.8627385601       -0.4422356958       -2.7121500300
 H          5.5106471525       -2.0827686567       -2.8214033955
 C          3.8982107307       -1.8525095250       -1.4217711911
 H          3.0877486215       -1.9040503644       -2.1531797913
 H          4.0815206146       -2.8544425854       -1.0339816381
 H          6.5533237299       -0.8892771628        1.5604690499
 H          6.8754590072       -2.6063251674        1.8065506468
 H          4.6566451554       -2.2211934704        2.5246999471
 H          4.5403331881       -3.1103776293        0.9967399947
 O          3.5681108137       -0.2090352627        1.9330161358
 C          2.7642183661        0.8878107634        1.6748245802
 O          2.5684353382        1.6194286568        2.6659598761
 O          2.0700844063        0.2354263990       -1.8253051563
 C          1.3882487599        2.3081744953        0.2030592590
 C         -0.0665454363        1.9616014172        0.3885161371
 C         -0.8524140658        2.6330302091        1.3170051902
 C         -2.1814047695        2.2884460267        1.4934057940
 C         -2.7526180785        1.2731245076        0.7473653986
 C         -1.9731221328        0.5905319576       -0.1775322776
 C         -0.6416073977        0.9374729817       -0.3520440935
 H         -0.0376728643        0.4055323012       -1.0729130494
 N         -2.5442663709       -0.4404488495       -0.9461270568
 S         -3.3531094273       -1.6624180165       -0.1244014664
 O         -2.8350626986       -1.8323953821        1.2141624132
 O         -3.2855360293       -2.8172125317       -0.9931655013
 C         -5.0369020081       -1.0854408954       -0.0618281665
 C         -5.6835828734       -0.9747650332        1.1534610651
 C         -6.9966444101       -0.5303187054        1.1756862238
 C         -7.6359916435       -0.2068716325       -0.0112704003
 C         -6.9732526163       -0.3264025991       -1.2239175777
 C         -5.6613625588       -0.7715154210       -1.2532530094
 H         -5.1121478582       -0.8826383667       -2.1732375291
 H         -7.4738311055       -0.0741183162       -2.1448378077
 H         -8.6569636124        0.1402572257        0.0088370107
 H         -7.5135489188       -0.4380235676        2.1173671872
 H         -5.1439637458       -1.2323844557        2.0510333125
 H         -1.9006633869       -0.8343767206       -1.6183414785
 H         -3.7864896735        0.9997579105        0.8814606571
 H         -2.7796452459        2.8163228164        2.2202290211
 H         -0.4097040786        3.4165133693        1.9145635806
 H          1.6740548744        2.9806673296        1.0270146187
 C          1.6718855266        3.0446535943       -1.1003804319
 C          0.6920410229        3.1607798834       -2.2255942253
 C          0.9956605862        4.3553385417       -1.3757206291
 H          1.5778241326        5.1610984917       -1.7963002258
 H          0.2365665088        4.6741921447       -0.6772372093
 H          1.0829696787        3.1222083126       -3.2310221465
 H         -0.2728129363        2.6914800323       -2.1171962572
 H          2.7168343827        2.9699087270       -1.3843211174
