  62
        -98.94388233
 C         -1.8517674502        1.1333825435        0.4763282882
 C         -1.9068159900       -0.0188729186       -0.3452567010
 C         -3.2177496409       -0.3120168280       -0.9391912602
 C         -4.2581862900        0.5090270187       -0.7084365716
 C         -5.6478864909        0.3554394548       -1.2645954911
 C         -6.5402718029       -0.6001947362       -0.4606941308
 C         -6.1980478292       -2.0839590555       -0.6021066442
 H         -7.0275248370       -2.6462308752       -0.1685150197
 H         -6.1470687931       -2.3444166566       -1.6598465605
 C         -4.8977676359       -2.5034053337        0.0976406946
 H         -5.0690593984       -3.4228623003        0.6619405198
 H         -4.6083287764       -1.7348887476        0.8180461659
 C         -3.7244284685       -2.7632132901       -0.8472394235
 H         -2.8492258603       -3.0149967325       -0.2434100676
 H         -3.9508854851       -3.6197683206       -1.4860563976
 C         -3.3580846914       -1.5709138451       -1.7407259289
 H         -2.3925068592       -1.7754162229       -2.2100688804
 H         -4.1057075458       -1.4439344441       -2.5234722904
 H         -6.4973931051       -0.3147707556        0.5930181216
 H         -7.5671462263       -0.4517734055       -0.8028996080
 H         -5.5936521869        0.0197262580       -2.3006943485
 H         -6.1021393543        1.3485499847       -1.2447865633
 O         -4.1560537093        1.6217745270        0.0671427846
 C         -2.9625086982        1.9486323295        0.6914239259
 O         -3.0145197030        2.9790377262        1.3944537846
 O         -0.9196108561       -0.7613566325       -0.5758795853
 C         -0.5578940609        1.5099657312        1.1713201865
 C          0.5621668840        1.7316191372        0.1828719499
 C          0.2955668198        2.2537576382       -1.0788978299
 C          1.3101447513        2.4469904423       -1.9979929467
 C          2.6204049205        2.1402396639       -1.6749460892
 C          2.9021005922        1.6448670413       -0.4105432542
 C          1.8803165761        1.4437382496        0.5090635741
 H          2.1195778305        1.0516256556        1.4859179237
 N          4.2422404543        1.3287567739       -0.0854911779
 S          4.8340621832       -0.0807088634       -0.7771359079
 O          6.1998927435       -0.2032290669       -0.3206180303
 O          4.6344802968       -0.0149341469       -2.2012196122
 C          3.8360524312       -1.3678377132       -0.0516143188
 C          4.3410541918       -2.0908747825        1.0118709298
 C          3.5251269022       -3.0186652621        1.6381533059
 C          2.2177736358       -3.1908736603        1.2068464701
 C          1.7242030410       -2.4542847911        0.1411646313
 C          2.5407662484       -1.5350003774       -0.4985514328
 H          2.1757447943       -0.9507681499       -1.3275645283
 H          0.7017970601       -2.5552496021       -0.1864439908
 H          1.5773067914       -3.9019851375        1.7051978211
 H          3.9052785704       -3.5968539366        2.4651731412
 H          5.3596122908       -1.9165457583        1.3196327185
 H          4.4104661066        1.2927421674        0.9111642817
 H          3.4214276463        2.2626423287       -2.3852899796
 H          1.0782856865        2.8402060260       -2.9765000341
 H         -0.7254865073        2.4970102911       -1.3398835807
 H         -0.7546680046        2.4648282790        1.6817435929
 C         -0.2136781650        0.4600477093        2.2116547920
 C          0.4251064987        0.8472926569        3.5108516937
 C         -1.0088677920        0.4134091859        3.4803148516
 H         -1.2685785226       -0.5495288465        3.8933739648
 H         -1.7740229163        1.1653193249        3.6111900877
 H          1.1505405292        0.1778441237        3.9488312974
 H          0.6292750016        1.8942477732        3.6793030124
 H          0.0714163685       -0.4854804081        1.7642212132
