  62
        -98.94388117
 C         -1.3360916162       -1.2507152114        0.1427053262
 C         -1.4754929254        0.1266033503        0.4604207195
 C         -2.6176188215        0.8245742840       -0.1428694249
 C         -3.4419829835        0.1454591492       -0.9606567784
 C         -4.6759923122        0.7113081714       -1.6005225463
 C         -5.9110861064        0.4924620357       -0.7155632481
 C         -5.7117063641        0.9177324164        0.7392092145
 H         -6.6569225558        0.7493950367        1.2599812663
 H         -4.9692494519        0.2642211866        1.2029365359
 C         -5.2813995160        2.3801800252        0.9194238962
 H         -5.8743654105        2.8232307107        1.7223912859
 H         -5.4954310546        2.9439626573        0.0107910648
 C         -3.8104342915        2.5651360722        1.2969265300
 H         -3.6690631342        3.6029964173        1.6101853517
 H         -3.5701217455        1.9298064903        2.1531204891
 C         -2.7936745867        2.2804935223        0.1842370177
 H         -3.0625807182        2.8445675683       -0.7110229731
 H         -1.8157361067        2.6236094962        0.5316607828
 H         -6.1638240301       -0.5702801858       -0.7297190756
 H         -6.7474017851        1.0456658346       -1.1468873172
 H         -4.5304287146        1.7743935479       -1.7816223434
 H         -4.8309451766        0.2062378499       -2.5553276699
 O         -3.2633414994       -1.1633035531       -1.2637643237
 C         -2.2105492059       -1.8961537335       -0.7320193656
 O         -2.1875387637       -3.0793377762       -1.1231010640
 H          2.1522029985       -0.5919598685        0.9703575492
 C          2.1187222912       -1.1875157783        0.0705775274
 C          1.0090307379       -1.9771873738       -0.1938582857
 C          0.9872909757       -2.7390243679       -1.3578707673
 C          2.0585930669       -2.7073032048       -2.2311710246
 C          3.1625554277       -1.9147909891       -1.9686409861
 C          3.1920851808       -1.1484273831       -0.8090718029
 N          4.3022586038       -0.3491624254       -0.5156167962
 S          4.2096654787        0.9797338448        0.4810333568
 O          5.4063337839        1.7331686776        0.1677797770
 O          4.0813473074        0.5634019975        1.8556285214
 C          2.7792211557        1.9240441200       -0.0151950220
 C          2.4635899286        2.0352968233       -1.3543644907
 C          1.3867042389        2.8243994057       -1.7235705345
 C          0.6563247008        3.4963730634       -0.7561983347
 C          0.9885730527        3.3775425279        0.5833548372
 C          2.0575302877        2.5815321765        0.9590849163
 H          2.3357758496        2.4490479882        1.9922930241
 H          0.4168161834        3.8928417535        1.3384883943
 H         -0.1799478311        4.1121280327       -1.0484928062
 H          1.1196506499        2.9125794229       -2.7646265482
 H          3.0471590451        1.5084763230       -2.0918704465
 H          4.9848824128       -0.2484031757       -1.2508998780
 H          3.9970884426       -1.8907787730       -2.6525311922
 H          2.0324560718       -3.3028898262       -3.1311585104
 H          0.1177054761       -3.3385545505       -1.5779035182
 C         -0.1531504131       -1.9702563905        0.7694550961
 H          0.1387628222       -1.3506001608        1.6286880291
 C         -0.4671777066       -3.3642617215        1.2730195999
 C          0.4621605680       -3.9951586937        2.2647695453
 C         -0.9029431328       -3.5496883577        2.6939951514
 H         -1.6480574594       -4.3005990246        2.9101006088
 H         -0.9788322117       -2.6685576195        3.3147486908
 H          1.3119938012       -3.4144357943        2.5922757745
 H          0.6573478341       -5.0536336625        2.1870799953
 H         -0.9207388291       -4.0052526592        0.5291167919
 O         -0.6816015969        0.7406124377        1.2215722767
