  62
        -98.94127098
 C         -1.7786460806       -0.6673802196       -0.0192143590
 C         -2.9666152506       -1.0972835792        0.6310396913
 C         -4.2326711906       -0.6876566299        0.0151751409
 C         -4.2176285307        0.0663534692       -1.0983469997
 C         -5.4222721607        0.5430783584       -1.8632881802
 C         -6.0501576708        1.8265259589       -1.3031348613
 C         -6.8108654509        1.6572401899        0.0125873388
 H         -7.3778305510        2.5760759200        0.1750574180
 H         -7.5309029508        0.8443738397       -0.0873485605
 C         -5.9151218509        1.4076387910        1.2340734691
 H         -6.2398175610        2.0449299216        2.0597302985
 H         -4.8875205509        1.6927427009        0.9963302089
 C         -5.9246357508       -0.0336468186        1.7437597603
 H         -5.2307021708       -0.1038732878        2.5851775004
 H         -6.9226164708       -0.2863200584        2.1087482504
 C         -5.5085949406       -1.0770260494        0.6985750012
 H         -5.3360543806       -2.0260494390        1.2121057320
 H         -6.3047824806       -1.2147246201       -0.0328520988
 H         -6.7471993408        2.2032307682       -2.0553188316
 H         -5.2632947009        2.5738098490       -1.1760637119
 H         -5.0843934406        0.7421579476       -2.8826974203
 H         -6.1730244406       -0.2472096917       -1.8940936096
 O         -3.0627476307        0.4761983288       -1.6818218500
 C         -1.8178540507        0.1429554294       -1.1556770597
 O         -0.8679071307        0.6237014590       -1.8005084500
 H          1.5286219594       -0.1271860101       -0.9830611793
 C          1.4064117293        0.4623997106       -0.0877318998
 C          0.4266428592        0.1176009713        0.8306753505
 C          0.2739628391        0.9069173022        1.9658651398
 C          1.0843495390        2.0076896925        2.1800201089
 C          2.0578237990        2.3512204018        1.2578493987
 C          2.2026695891        1.5802189709        0.1139930493
 N          3.2098172091        1.9218636202       -0.8239079409
 S          4.7429680892        1.4377618707       -0.3557595604
 O          5.1025478090        2.1507056718        0.8431318690
 O          5.6001521792        1.6318516198       -1.5030554006
 C          4.5648625293       -0.3021663990       -0.0043042690
 C          4.7525508095       -1.2113739598       -1.0260770182
 C          4.5131715196       -2.5539447297       -0.7813778371
 C          4.0792186596       -2.9595797687        0.4715283632
 C          3.8925139094       -2.0334161278        1.4865727424
 C          4.1344388693       -0.6898562280        1.2489199313
 H          4.0007671392        0.0601886726        2.0113793107
 H          3.5511754494       -2.3513114670        2.4588240727
 H          3.8834432997       -4.0039772185        0.6581802341
 H          4.6586222097       -3.2773997403       -1.5676736165
 H          5.0907597395       -0.8529277006       -1.9853038385
 H          3.0135528792        1.5582890094       -1.7465919006
 H          2.7097296889        3.1961851620        1.4093638680
 H          0.9571319089        2.6040191332        3.0708119384
 H         -0.4912095109        0.6470241227        2.6843005200
 C         -0.4625703106       -1.0788743090        0.6189510114
 H         -0.7560177806       -1.4641086082        1.6085075817
 C          0.2685376795       -2.2128929095       -0.0861582376
 C         -0.4890526803       -3.3822691900       -0.6372640967
 C          0.2148616196       -2.4404167507       -1.5656287274
 H          1.1140953097       -2.7829227511       -2.0569924371
 H         -0.3783086704       -1.7673864113       -2.1645416480
 H         -1.5676611803       -3.3391851101       -0.5913566967
 H         -0.0839128702       -4.3731106499       -0.5001493758
 H          1.2156478095       -2.4328556990        0.3975947826
 O         -2.9670927006       -1.7966883283        1.6780496819
