  62
        -98.93312707
 C         -2.4098213341       -1.0423783572        0.3547816532
 C         -2.6690955804        0.1894816603        1.0064339687
 C         -3.9700799969        0.8366444430        0.7520298998
 C         -4.8458904105        0.2207599645       -0.0633137410
 C         -6.2066408390        0.6920660886       -0.5026093906
 C         -6.1347705307        1.7966322657       -1.5691631167
 C         -5.1028109918        2.8876229696       -1.2958418978
 H         -4.1149213408        2.4323461495       -1.2028274349
 H         -5.0751838960        3.5446612317       -2.1691479746
 C         -5.3804231413        3.7534465960       -0.0692369549
 H         -4.6222199376        4.5405405001       -0.0500501386
 H         -6.3548394816        4.2337679877       -0.1826700295
 C         -5.3483501420        3.0328112799        1.2803227984
 H         -5.3135535068        3.8009301559        2.0584913637
 H         -6.2612891562        2.4672723019        1.4460596534
 C         -4.1306114259        2.1397656109        1.4973201401
 H         -4.0738952624        1.8784346398        2.5611372467
 H         -3.2202825194        2.7165606220        1.2965862090
 H         -5.8783231887        1.3286528480       -2.5226220428
 H         -7.1246749087        2.2450697627       -1.6681944414
 H         -6.7134596723       -0.1743863874       -0.9329926348
 H         -6.7833224019        1.0199921507        0.3570723733
 O         -4.5618079861       -0.9708904243       -0.6577423163
 C         -3.3582623238       -1.6290027083       -0.4826613526
 O         -3.2835289550       -2.7008416745       -1.1151099889
 O         -1.8407474064        0.7397953226        1.7834099789
 C         -1.0590601964       -1.6842694202        0.6179185205
 C         -0.0866597920       -1.4192862006       -0.5072491958
 C         -0.2756937108       -1.9563615872       -1.7768446992
 C          0.6478131316       -1.7210343422       -2.7785602315
 C          1.7809242581       -0.9656406748       -2.5327300611
 C          1.9728740588       -0.4151203227       -1.2710664819
 C          1.0363040343       -0.6395872978       -0.2714254693
 H          1.1938515075       -0.1983078600        0.7022437131
 N          3.0990699755        0.3776731764       -0.9976514473
 S          3.7869193292        0.2839742544        0.5421191946
 O          3.8377251151       -1.0937000804        0.9771184733
 O          3.1046480942        1.2053015785        1.4155588175
 C          5.4304025655        0.8857894305        0.2002869833
 C          5.6405131484        2.2509105437        0.1478922075
 C          6.9101469342        2.7220973463       -0.1461399081
 C          7.9423887959        1.8259733902       -0.3817761263
 C          7.7166579525        0.4588857083       -0.3239962332
 C          6.4489461566       -0.0192861727       -0.0315372554
 H          6.2286068675       -1.0727110633        0.0334007978
 H          8.5218354668       -0.2349874441       -0.5042161349
 H          8.9297570902        2.1957629318       -0.6089017700
 H          7.0900857974        3.7841691607       -0.1889251055
 H          4.8099644494        2.9077306278        0.3482851831
 H          3.7986877172        0.3315386579       -1.7259933492
 H          2.5071886507       -0.7961584529       -3.3132073724
 H          0.4898314104       -2.1423552598       -3.7599752076
 H         -1.1565803723       -2.5486857621       -1.9701330888
 H         -0.6693558844       -1.1758976928        1.5111307229
 C         -1.1359136145       -3.1706080741        0.9106648767
 C          0.0415631368       -3.8353939446        1.5563978804
 C         -1.2261239939       -3.6367085569        2.3309345751
 H         -1.8366598514       -4.4993527127        2.5517849051
 H         -1.2373869301       -2.8831357428        3.1052672578
 H          0.3021529166       -4.8354569650        1.2454823955
 H          0.8932462477       -3.2162571200        1.7999680914
 H         -1.6862104115       -3.7300559424        0.1657326570
