  62
        -98.93548861
 C          1.2664323116        1.3520622188       -0.5610657363
 C          2.4394278960        1.4218226530        0.2287424067
 C          3.4624214892        0.3822784253        0.0195782987
 C          3.2179568104       -0.5974470898       -0.8686739844
 C          4.0907312657       -1.7644568654       -1.2569860665
 C          4.7948255208       -2.5095231054       -0.1128287926
 C          6.3070031003       -2.2805398688       -0.0755651717
 H          6.7747069207       -3.1249759556        0.4355481884
 H          6.6816609546       -2.2723668237       -1.1012496215
 C          6.7540975728       -1.0047276792        0.6359337527
 H          6.6021034570       -1.1193514588        1.7113639529
 H          7.8279972166       -0.8928409539        0.4691975088
 C          6.0512888126        0.2767477317        0.1837031770
 H          5.9255922497        0.2813372015       -0.8984301279
 H          6.6997582116        1.1191319238        0.4335385498
 C          4.6968997765        0.5107990903        0.8695545517
 H          4.5973154044       -0.1484408751        1.7370619497
 H          4.6544194856        1.5313246524        1.2632093106
 H          4.6185818698       -3.5772653224       -0.2545872705
 H          4.3433400786       -2.2355348036        0.8397605062
 H          4.8295285531       -1.4185597767       -1.9846767429
 H          3.4249097447       -2.4483222262       -1.7887488782
 O          2.0711814452       -0.6354762967       -1.6013052446
 C          1.0664695519        0.3128343993       -1.4700644335
 O          0.0929195857        0.1089458569       -2.2174123316
 O          2.6318840803        2.3365977239        1.0767703268
 C          0.2254270351        2.4294238431       -0.3184521206
 C         -0.6949915596        2.0465927255        0.8150456159
 C         -1.1260034496        2.9950139230        1.7358716523
 C         -1.9741721966        2.6349353914        2.7680668805
 C         -2.3990922505        1.3264777175        2.9074078301
 C         -1.9573581895        0.3645028729        2.0035681157
 C         -1.1223985009        0.7347675213        0.9591766121
 H         -0.7769865420       -0.0178184644        0.2700551197
 N         -2.3251322078       -0.9731598357        2.1655204842
 S         -2.2891498812       -2.1307935180        0.9675210097
 O         -2.8926384770       -3.2843146839        1.6021539498
 O         -0.9468037456       -2.3104364880        0.4752656801
 C         -3.3906563307       -1.5377046756       -0.3027689664
 C         -4.7451000463       -1.5980515095       -0.0289830458
 C         -5.6455821393       -1.1410858144       -0.9755549888
 C         -5.1790495229       -0.6353814431       -2.1803186211
 C         -3.8194681802       -0.5868513617       -2.4404387367
 C         -2.9095929012       -1.0373457937       -1.4943722985
 H         -1.8473547898       -0.9909228028       -1.6793634791
 H         -3.4484067989       -0.1976637633       -3.3749059928
 H         -5.8778009948       -0.2798634219       -2.9210638572
 H         -6.7039678057       -1.1817542732       -0.7746607731
 H         -5.0657944253       -2.0194407424        0.9097734091
 H         -3.0135965628       -1.1620259904        2.8769111019
 H         -3.0502811749        1.0426823045        3.7195601902
 H         -2.3033871506        3.3795502256        3.4766501874
 H         -0.7749643292        4.0129329461        1.6527769988
 H          0.7999036165        3.3089728188        0.0155826930
 C         -0.5350327276        2.8308397717       -1.5744303576
 C         -1.9598806943        2.4488977056       -1.8246558018
 C         -1.6134219717        3.8721823541       -1.5144633831
 H         -1.6655859447        4.6022116253       -2.3078073735
 H         -1.8912153943        4.2520569393       -0.5436943456
 H         -2.2359445151        2.1860737428       -2.8335754611
 H         -2.4688105051        1.8669688162       -1.0715760665
 H          0.1137835164        2.8540325471       -2.4439183438
