  62
        -98.94651248
 C          1.1842195286        1.1358417988        0.5719655611
 C          1.6521047955        0.6029081352       -0.6542172822
 C          2.4539656041       -0.6236261918       -0.5444216132
 C          2.5925655571       -1.2307558362        0.6471641389
 C          3.3612705314       -2.4960558491        0.9144396521
 C          4.8649219922       -2.2732686885        1.1298591127
 C          5.6575987762       -1.9159021932       -0.1283581975
 H          6.7159058906       -2.0035901046        0.1255123291
 H          5.4498087527       -2.6487638616       -0.9085805534
 C          5.3950463927       -0.5009825023       -0.6633842989
 H          6.3464785214       -0.0200763110       -0.9016386336
 H          4.9199558619        0.1005042188        0.1150414604
 C          4.5328031797       -0.4491742020       -1.9249647128
 H          4.3777425341        0.5995696029       -2.1903858579
 H          5.0627980238       -0.9299262360       -2.7501851858
 C          3.1567399602       -1.1115981414       -1.7751897099
 H          2.5464375634       -0.8355320663       -2.6380326203
 H          3.2692192188       -2.1951562844       -1.7526537428
 H          4.9984329354       -1.4892727941        1.8789511638
 H          5.2760820677       -3.1980553334        1.5412524507
 H          3.2129423750       -3.2013284506        0.0965269433
 H          2.9451959758       -2.9273012832        1.8273449361
 O          2.0094067828       -0.7564007592        1.7804261107
 C          1.3283558669        0.4477356526        1.7774286451
 O          0.8882707171        0.7899470773        2.8957050450
 O          1.4305968446        1.1178707107       -1.7786514661
 C          0.4292584112        2.4561194815        0.6156340444
 C         -0.9475239654        2.2315914838        0.0408040329
 C         -1.3829363640        2.7538274132       -1.1687575575
 C         -2.6458570736        2.4467943865       -1.6487588853
 C         -3.4972259533        1.6219882096       -0.9361910943
 C         -3.0692539723        1.0985223230        0.2774044886
 C         -1.8063400475        1.4039403381        0.7553699322
 H         -1.4690276542        0.9884891467        1.6969446071
 N         -3.9219545982        0.2344749160        1.0044128851
 S         -4.2141602065       -1.2381139421        0.2594304734
 O         -5.0588895415       -1.0181802601       -0.8861458352
 O         -4.7449286628       -2.1011341964        1.2897255421
 C         -2.6090839885       -1.8114656904       -0.2660531061
 C         -2.1452364419       -1.4667209773       -1.5195842505
 C         -0.8772165434       -1.8753446570       -1.8985628326
 C         -0.1009730421       -2.6176775459       -1.0229602760
 C         -0.5762286128       -2.9462408117        0.2369780350
 C         -1.8408052198       -2.5346925238        0.6240344970
 H         -2.2497858604       -2.7767820868        1.5922818570
 H          0.0354944914       -3.5164070278        0.9179049977
 H          0.8809539831       -2.9417053178       -1.3264380194
 H         -0.4951738870       -1.6081687396       -2.8704716001
 H         -2.7823164728       -0.8969148577       -2.1757945801
 H         -3.5880305829        0.0631150521        1.9432714732
 H         -4.4762268999        1.3603248441       -1.3039383736
 H         -2.9707419701        2.8554844222       -2.5934707850
 H         -0.7294222050        3.3888809285       -1.7431227224
 H          0.3083464494        2.6970786535        1.6812614567
 C          1.2060458794        3.5707235142       -0.0494967700
 C          0.8587273069        4.9950827369        0.2589514829
 C          2.1351055299        4.4054960725        0.7775411275
 H          3.0681726193        4.7263447282        0.3391390170
 H          2.2040825894        4.1826500329        1.8326855272
 H          0.9157250496        5.7244738596       -0.5344608811
 H          0.0596281449        5.1726657540        0.9629312843
 H          1.5210743864        3.3294141305       -1.0567405396
