  62
        -98.93647949
 C          1.8757540402        1.1405403705        0.2926446804
 C          2.4761340802        0.1138892906        1.0652419805
 C          3.8981525202       -0.1669818294        0.8101096904
 C          4.5520859701        0.5494753205       -0.1198247398
 C          6.0031528501        0.4687749705       -0.5231574499
 C          6.6211648301       -0.9277784495       -0.6729136998
 C          5.6586560700       -2.0127958496       -1.1775718096
 H          4.7350878000       -1.5569713796       -1.5388022196
 H          6.1182257100       -2.5303730697       -2.0216547596
 C          5.3262425201       -3.0591716595       -0.1110021295
 H          4.9648766301       -3.9637168095       -0.6062502694
 H          6.2437066202       -3.3220290994        0.4202033404
 C          4.2622836502       -2.6455977494        0.9052975406
 H          4.2047755503       -3.4254447193        1.6687995006
 H          3.2824614402       -2.6019963894        0.4210353506
 C          4.4993967003       -1.2942505293        1.5991042804
 H          3.9684864004       -1.3106113492        2.5550003005
 H          5.5569335003       -1.1310016993        1.7927073003
 H          7.0434328502       -1.2440990395        0.2798472102
 H          7.4559255700       -0.8296670796       -1.3689835299
 H          6.5886798502        1.0430823505        0.2006590400
 H          6.0615975400        0.9991004304       -1.4766662400
 O          3.9396716501        1.5315142004       -0.8358468598
 C          2.6018607201        1.8530107305       -0.6610754397
 O          2.2139913400        2.7753963004       -1.4025779998
 O          1.8530319803       -0.5325495193        1.9503327206
 C          0.4057600202        1.4318737806        0.5502721605
 C         -0.4480108799        0.8192392605       -0.5343917893
 C         -0.5430093000        1.3824859803       -1.8034732294
 C         -1.3106661801        0.7781935802       -2.7816829193
 C         -2.0130630101       -0.3835029097       -2.5124664391
 C         -1.9236736400       -0.9561083196       -1.2499949390
 C         -1.1416323999       -0.3549359795       -0.2728883992
 H         -1.0663561998       -0.8240306994        0.6971975609
 N         -2.6275218999       -2.1363295796       -0.9439812389
 S         -3.6117753998       -2.1341501495        0.4115138212
 O         -2.8136221697       -2.1720879493        1.6091676012
 O         -4.5177615398       -3.2433346195        0.2092245014
 C         -4.4949209698       -0.5894585295        0.2963296612
 C         -4.0349009398        0.5121900306        0.9882630610
 C         -4.6794171798        1.7271657406        0.8172363010
 C         -5.7658981399        1.8183021705       -0.0387094189
 C         -6.2206248099        0.7005477904       -0.7220373688
 C         -5.5769948399       -0.5152043896       -0.5590754387
 H         -5.9024493200       -1.4097649696       -1.0652140386
 H         -7.0696475000        0.7742680904       -1.3822879387
 H         -6.2617674999        2.7668087905       -0.1711686290
 H         -4.3275409097        2.5971020206        1.3485048609
 H         -3.1899503997        0.3968556007        1.6476750610
 H         -3.1264396500       -2.5270295397       -1.7310223888
 H         -2.6169992902       -0.8506158298       -3.2756974590
 H         -1.3687659402        1.2213091501       -3.7641975693
 H          0.0164147299        2.2768796103       -2.0260517595
 H          0.1755800403        0.9079107406        1.4883124106
 C          0.1199219902        2.9073586406        0.7429348304
 C         -1.1000672797        3.3179889106        1.5090350405
 C          0.2600798003        3.5026287007        2.1105551003
 H          0.6581251103        4.5023678007        2.1982690702
 H          0.5570735004        2.8439850808        2.9141833404
 H         -1.6414828498        4.1929000806        1.1843333205
 H         -1.7224690997        2.5323480207        1.9096902706
 H          0.4236482101        3.5222766705       -0.0935159697
