  62
        -98.94491790
 C         -2.5609325939       -0.0650147046       -0.3379973362
 C         -2.1462855904       -0.6381785787        0.8889139798
 C         -1.7867272931       -2.0625894260        0.8408669635
 C         -1.8684460903       -2.7246728324       -0.3270827060
 C         -1.5467747654       -4.1788696913       -0.5184933161
 C         -0.0887001450       -4.3950246117       -0.9420215028
 C          0.9286952553       -3.6682258772       -0.0626158447
 H          1.9231727297       -3.9505998792       -0.4171726834
 H          0.8356306977       -2.5899864715       -0.2119632045
 C          0.8146700647       -3.9753486746        1.4369630269
 H          0.2603582401       -4.9031023318        1.5876919069
 H          1.8198352988       -4.1269117646        1.8355708083
 C          0.1753211437       -2.8538735703        2.2589270352
 H          0.6340671647       -1.9013896136        1.9822420073
 H          0.3928231938       -3.0365982627        3.3149241160
 C         -1.3462645406       -2.7099008808        2.1230682911
 H         -1.8242547661       -3.6843376539        2.2496446348
 H         -1.6924973078       -2.0492946378        2.9234067280
 H          0.1159616839       -5.4677436065       -0.9278929956
 H          0.0319439092       -4.0385104387       -1.9679995708
 H         -1.7473879802       -4.7100728030        0.4101194100
 H         -2.2022373652       -4.5702539899       -1.2991355281
 O         -2.2533739187       -2.1346664279       -1.4898219070
 C         -2.5859605451       -0.7908781498       -1.5264720050
 O         -2.8963796763       -0.3679608318       -2.6616002020
 H         -0.3402448704        0.9801233272       -0.8022138031
 C         -0.5090401736        1.8943970220       -0.2500933290
 C         -1.8087844583        2.2781641720        0.0558432335
 C         -2.0012056279        3.4761157317        0.7318579221
 C         -0.9169628566        4.2545730198        1.1017258173
 C          0.3754242465        3.8484009138        0.8293513387
 C          0.5784629534        2.6468074097        0.1572551240
 N          1.8866114775        2.1757934191       -0.0667083462
 S          2.1725189727        0.6140427367       -0.5907203378
 O          1.9073513756        0.4701793909       -2.0091386570
 O          1.4893246799       -0.2933181554        0.2925627389
 C          3.9286273934        0.5274553827       -0.2981801858
 C          4.8137623326        0.6005345975       -1.3559767555
 C          6.1749502118        0.5567124954       -1.0959708443
 C          6.6247267707        0.4442697319        0.2106803450
 C          5.7237182597        0.3700374221        1.2629483315
 C          4.3624222038        0.4117589251        1.0090183450
 H          3.6238604247        0.3488295379        1.7914781998
 H          6.0764411000        0.2796437932        2.2776712269
 H          7.6840452709        0.4111659476        0.4106659735
 H          6.8773822952        0.6103139523       -1.9120799370
 H          4.4169851618        0.6807627830       -2.3553429497
 H          2.5390961504        2.8566466733       -0.4241202450
 H          1.2215948775        4.4428772685        1.1351630502
 H         -1.0829224248        5.1864337929        1.6206327535
 H         -3.0014074661        3.8006790511        0.9688850537
 C         -2.9504125083        1.4000448268       -0.3985952639
 H         -3.1436874937        1.6181791073       -1.4605740267
 C         -4.2258375390        1.6338327886        0.3874249648
 C         -5.2255501867        2.6537566734       -0.0661149352
 C         -5.5287902922        1.1932900719       -0.2069014300
 H         -6.2692065639        0.7512950350        0.4426088618
 H         -5.4961817247        0.7543867427       -1.1939767714
 H         -5.7639484156        3.2156950247        0.6821634564
 H         -5.0020247387        3.2100849651       -0.9640168253
 H         -4.0863297666        1.4871760589        1.4522869121
 O         -2.1015961436        0.0015560929        1.9723003139
