  62
        -98.94386602
 C         -1.6674447062       -1.4331489582        0.5597353558
 C         -2.6511861969       -1.0571434384       -0.3875001724
 C         -3.4795357704        0.1035373087       -0.0202616551
 C         -3.2085178205        0.7873575752        1.1053194404
 C         -3.9342218140        2.0201543197        1.5595470921
 C         -3.2806407240        3.2977756724        1.0143515440
 C         -3.0010577844        3.2576041072       -0.4878129908
 H         -2.5716788649        4.2232446456       -0.7636546343
 H         -2.2481396268        2.4928225108       -0.6912620693
 C         -4.2363415663        2.9884726122       -1.3578929869
 H         -5.1446320945        3.1823905263       -0.7860340387
 H         -4.2302865350        3.6829585275       -2.2005528768
 C         -4.2976320180        1.5770946547       -1.9435405371
 H         -5.0789594565        1.5591293186       -2.7080581300
 H         -3.3514476720        1.3422015788       -2.4371215792
 C         -4.6113242685        0.4567198804       -0.9444373065
 H         -4.8215847050       -0.4492155468       -1.5202826253
 H         -5.5053744505        0.7143226292       -0.3725536193
 H         -3.9349253619        4.1412993326        1.2422726681
 H         -2.3342305653        3.4545514091        1.5369300353
 H         -3.9122756590        2.0485730077        2.6504630833
 H         -4.9702438135        1.9631744014        1.2305434267
 O         -2.1976805190        0.4483003390        1.9467235677
 C         -1.4199187954       -0.6697481547        1.7047535042
 O         -0.5450560382       -0.8797014132        2.5695244951
 O         -2.8534779248       -1.6429999994       -1.4821135981
 C         -0.7383209004       -2.6255937893        0.3736914988
 C          0.4711014267       -2.1306736651       -0.3805793152
 C          0.4211553630       -1.8212607107       -1.7357401980
 C          1.5217055786       -1.2704621436       -2.3674927767
 C          2.6840647669       -1.0031845871       -1.6637966328
 C          2.7384202015       -1.3035781079       -0.3096305041
 C          1.6414729150       -1.8752408416        0.3186982353
 H          1.6810493984       -2.0870355146        1.3786347030
 N          3.8979519248       -0.9930701842        0.4267520885
 S          4.4640446073        0.5751906857        0.2727206313
 O          5.2957999046        0.6695974859       -0.9013434415
 O          5.1181789045        0.8742590541        1.5274968743
 C          3.0173612245        1.6011676293        0.0584891672
 C          1.9770757890        1.4907543227        0.9600676158
 C          0.8557393854        2.2860333742        0.7896245124
 C          0.7969194260        3.1825309994       -0.2659443053
 C          1.8506387150        3.2839575258       -1.1608067754
 C          2.9699844784        2.4831986263       -1.0020347542
 H          3.8073884529        2.5215697344       -1.6796410923
 H          1.8002094392        3.9808352257       -1.9817555079
 H         -0.0759774604        3.8035086463       -0.3899217056
 H          0.0325778378        2.1876330112        1.4806945878
 H          2.0321246427        0.7913742129        1.7793796785
 H          3.8312563970       -1.2468722988        1.4023000419
 H          3.5434770925       -0.5566484902       -2.1376606041
 H          1.4717986302       -1.0335037317       -3.4192857859
 H         -0.4960852159       -1.9871530365       -2.2793430210
 H         -0.4073992246       -2.9066196468        1.3829287094
 C         -1.3818501225       -3.8360989803       -0.2659004038
 C         -0.7151514539       -5.1685473316       -0.1076301799
 C         -1.9988939050       -4.8823515355        0.6106696107
 H         -2.9010823435       -5.3694580229        0.2726769392
 H         -1.9619811807       -4.7285696004        1.6796581856
 H         -0.7330503255       -5.8551300612       -0.9398677672
 H          0.1935135552       -5.2084394034        0.4745026661
 H         -1.8753948047       -3.6281345378       -1.2046529328
