  62
        -98.94164255
 C         -2.3686790930       -1.2292448377        0.1718222799
 C         -3.3041636358       -0.5708012695        1.0101809247
 C         -4.1248535306        0.4670187573        0.3769670306
 C         -3.9385763752        0.7624448551       -0.9220838701
 C         -4.7165555506        1.7726114855       -1.7212719880
 C         -4.2072762078        3.2132486264       -1.5768490075
 C         -4.5073200774        3.8776361644       -0.2325377156
 H         -5.5704503447        3.7812351840       -0.0101332644
 H         -4.2928467126        4.9420738277       -0.3464140448
 C         -3.6821455805        3.3313475278        0.9410740705
 H         -3.2878402645        4.1642373390        1.5279296500
 H         -2.8214735545        2.7796617522        0.5540937452
 C         -4.4618366830        2.4299245474        1.8987088943
 H         -5.2439547131        3.0109346293        2.3921179360
 H         -3.7738027206        2.0700428590        2.6680261865
 C         -5.1078420051        1.2083094597        1.2322531908
 H         -5.9703437792        1.5147032648        0.6408209220
 H         -5.4443287378        0.5279960245        2.0184154429
 H         -4.6793605282        3.8056850180       -2.3639848962
 H         -3.1292547625        3.2229673449       -1.7564415037
 H         -5.7694199919        1.7281960790       -1.4408025557
 H         -4.6219720785        1.4783608369       -2.7687905131
 O         -3.0011302193        0.1399595281       -1.6835270226
 C         -2.1797484918       -0.8533069803       -1.1593842163
 O         -1.3521749387       -1.2996162736       -1.9745765417
 O         -3.4459283457       -0.8386507060        2.2332408357
 C         -1.5069993492       -2.3125686728        0.7962716387
 C         -0.0567911491       -2.0886740573        0.4481377383
 C          0.7259036753       -3.0086307413       -0.2356608121
 C          2.0462512554       -2.7188625371       -0.5330121841
 C          2.6149606194       -1.5174131101       -0.1533047423
 C          1.8394033258       -0.5866402331        0.5258908856
 C          0.5192531997       -0.8818094800        0.8268934534
 H         -0.0873549641       -0.1528975321        1.3518915998
 N          2.4088503940        0.6343752462        0.9286817190
 S          3.2931416922        1.5172829757       -0.1929312365
 O          3.2379658739        2.8827818735        0.2843586098
 O          2.8320938533        1.2907769889       -1.5429130833
 C          4.9531481268        0.9027600446        0.0025768493
 C          5.5051433547        0.9048505813        1.2687314018
 C          6.7975743777        0.4339045803        1.4356874571
 C          7.5136023131       -0.0248140020        0.3399132384
 C          6.9469623205       -0.0159306283       -0.9253893234
 C          5.6537073507        0.4524169776       -1.0991253947
 H          5.1688406746        0.4712688821       -2.0623844348
 H          7.5047306063       -0.3723815718       -1.7764321511
 H          8.5191382174       -0.3915864599        0.4726972448
 H          7.2413507611        0.4252973340        2.4181566602
 H          4.9165047604        1.2720901459        2.0926184801
 H          1.7671331228        1.2366705532        1.4240306114
 H          3.6406636289       -1.2871810349       -0.3906541427
 H          2.6412500085       -3.4396282311       -1.0728957202
 H          0.2952467209       -3.9409635388       -0.5611787847
 H         -1.6199202419       -2.1539431240        1.8823417124
 C         -1.9846560004       -3.7299726925        0.5193238609
 C         -3.4324045507       -4.0196095085        0.2618966933
 C         -2.4292006750       -4.1802269761       -0.8387466205
 H         -2.1736557808       -5.1810607156       -1.1550494067
 H         -2.4150395042       -3.4542074422       -1.6362698801
 H         -3.8639774157       -4.9066381258        0.7006487475
 H         -4.1110658492       -3.1801320494        0.2165655260
 H         -1.4515295527       -4.4586726673        1.1222227758
