  62
        -98.93642039
 C         -2.8165377896       -0.0364536291       -0.4414019401
 C         -2.3438554583       -0.5159455354        0.8039085914
 C         -2.0106009489       -1.9502780231        0.8643576664
 C         -2.2373713366       -2.7168138298       -0.2184508486
 C         -1.8747298969       -4.1671164092       -0.3658715448
 C         -0.3825688545       -4.3526981678       -0.7256901492
 C          0.5552810898       -3.2591969191       -0.2077112716
 H          1.5115567755       -3.3669890889       -0.7274324523
 H          0.1548154146       -2.2803201931       -0.4826290399
 C          0.8383130642       -3.2833359947        1.2970916681
 H          1.2997548465       -2.3293779317        1.5679079459
 H          1.5591052522       -4.0790366884        1.5041649507
 C         -0.3705740991       -3.5172918426        2.2000277024
 H         -0.0046540253       -3.5627430057        3.2301717789
 H         -0.8093386997       -4.4878662644        1.9795757885
 C         -1.4347029217       -2.4181538520        2.1756855401
 H         -2.2699477685       -2.7308312678        2.8146375431
 H         -1.0159043267       -1.5160761188        2.6356026409
 H         -0.3010424613       -4.3559924735       -1.8145212760
 H         -0.0455433556       -5.3228812428       -0.3596294898
 H         -2.4848823777       -4.5755854268       -1.1733709198
 H         -2.1332762188       -4.6921418278        0.5500605222
 O         -2.7638214051       -2.2278729888       -1.3743306362
 C         -3.0305873087       -0.8787336739       -1.5299312662
 O         -3.4414285731       -0.5584710707       -2.6642738475
 O         -2.1822736169        0.2242516831        1.8096817335
 C         -3.0381841419        1.4522251220       -0.6350816499
 C         -1.7708920205        2.1965155650       -0.2826727227
 C         -1.7613376311        3.4007988412        0.4086472802
 C         -0.5634065914        4.0113850489        0.7399757866
 C          0.6475392728        3.4397821417        0.3948963425
 C          0.6484856943        2.2420776761       -0.3073901799
 C         -0.5516421899        1.6442927059       -0.6548901626
 H         -0.5413651423        0.7079311992       -1.2018058356
 N          1.8803526888        1.6350235722       -0.6587199901
 S          2.7566530217        1.0425634671        0.6663812813
 O          2.0321803560       -0.0277917476        1.3146441591
 O          3.1281591695        2.1582918047        1.4978320746
 C          4.1960630425        0.3921584765       -0.1586457095
 C          5.1851891932        1.2709386169       -0.5560324874
 C          6.2924158085        0.7737842411       -1.2245207404
 C          6.3901252761       -0.5852781985       -1.4843225173
 C          5.3890458076       -1.4547901107       -1.0787047981
 C          4.2784150238       -0.9635677215       -0.4103904298
 H          3.4793453380       -1.6029409463       -0.0690826666
 H          5.4684711265       -2.5111156059       -1.2794611154
 H          7.2532459760       -0.9702801204       -2.0040176045
 H          7.0742580594        1.4456197530       -1.5399769135
 H          5.0692747004        2.3166518949       -0.3249216143
 H          1.7235464914        0.8531014312       -1.2837819980
 H          1.5850127001        3.8876349641        0.6802499536
 H         -0.5734321716        4.9425172639        1.2862428287
 H         -2.6935382063        3.8547370368        0.7034872018
 H         -3.2411239354        1.5965382594       -1.7068431444
 C         -4.2438884599        1.9165788387        0.1556299978
 C         -5.0908559157        3.0469120101       -0.3449183637
 C         -5.6118797840        1.6428939712       -0.3907353650
 H         -6.3940475873        1.3573097240        0.2964477609
 H         -5.6697496370        1.1467555423       -1.3488276675
 H         -5.5203701177        3.7269879875        0.3752240185
 H         -4.8069263834        3.5107908992       -1.2774370830
 H         -4.1005465848        1.8141068363        1.2253991811
