  62
        -98.93780392
 C          2.0322469185        1.0398829606       -0.3034707289
 C          2.6171333106        0.4297626885        0.8361224888
 C          2.9596646160       -0.9897046759        0.7188167201
 C          2.6699215920       -1.6478298986       -0.4178559724
 C          2.8991653991       -3.1124613474       -0.6773436312
 C          4.3228220070       -3.4541453243       -1.1376415087
 C          5.3953722893       -3.3623359833       -0.0515289595
 H          5.0806568215       -3.9425852406        0.8162438739
 H          6.2961178890       -3.8328517720       -0.4504443663
 C          5.7360844534       -1.9293748028        0.3807277202
 H          5.3657816426       -1.2258325064       -0.3685193762
 H          6.8209186318       -1.8101718573        0.4243811849
 C          5.1807659006       -1.5305532678        1.7479957302
 H          5.4521450313       -0.4890314724        1.9373876467
 H          5.6408474481       -2.1458949031        2.5241867702
 C          3.6559058895       -1.6507529427        1.8702038909
 H          3.3641788110       -2.6988154272        1.9379034863
 H          3.3417020807       -1.1395477185        2.7834295073
 H          4.3048822603       -4.4785991943       -1.5166502040
 H          4.5871001307       -2.7965860685       -1.9690305325
 H          2.6571690849       -3.6821889610        0.2205076734
 H          2.1998152971       -3.3977878639       -1.4665004707
 O          2.1000109686       -1.0359060459       -1.4871759277
 C          1.7625687846        0.3148926813       -1.4656726077
 O          1.2639696779        0.7120889730       -2.5351135819
 O          2.8407080188        1.0543502809        1.9089757288
 C          1.6181424107        2.4908575065       -0.1320251791
 C          0.3094504030        2.5614449130        0.6180980127
 C          0.0798267814        3.5445760586        1.5729903413
 C         -1.1298971268        3.6019509970        2.2430413984
 C         -2.1202763020        2.6710930887        1.9910500881
 C         -1.8899518997        1.6655166908        1.0561113284
 C         -0.6894667360        1.6320821073        0.3641592776
 H         -0.5293619767        0.8643001544       -0.3779334628
 N         -2.8509062707        0.6635427461        0.8512757237
 S         -2.7406533904       -0.4376776125       -0.4129146270
 O         -1.5917963521       -1.2807057468       -0.1947141935
 O         -2.8310195638        0.2386816572       -1.6882613879
 C         -4.2306561436       -1.3703343760       -0.1152042734
 C         -5.3450274860       -1.1568892421       -0.9036546841
 C         -6.5001473879       -1.8774347030       -0.6417574915
 C         -6.5218055505       -2.7922727726        0.3999417193
 C         -5.3946386047       -2.9971679580        1.1822140691
 C         -4.2366807246       -2.2811813509        0.9245375594
 H         -3.3335146626       -2.4126829335        1.4976260020
 H         -5.4134425605       -3.7116170269        1.9893125521
 H         -7.4214456465       -3.3518114586        0.6017578639
 H         -7.3761656750       -1.7229832696       -1.2507552489
 H         -5.2777520090       -0.4409386029       -1.7069405294
 H         -3.7995621932        0.9547689469        1.0376465276
 H         -3.0585985373        2.7071725452        2.5221083737
 H         -1.3006170165        4.3757066287        2.9759125936
 H          0.8605963059        4.2557301149        1.7989496627
 H          2.3871357799        2.9402041607        0.5184438874
 C          1.5898132981        3.2915497504       -1.4242339544
 C          0.3251159480        3.5958984899       -2.1635654397
 C          1.0523836235        4.6922130335       -1.4481409500
 H          1.5755489177        5.4309771700       -2.0360111576
 H          0.6073780779        5.0768042605       -0.5435863091
 H          0.3542394533        3.5572491759       -3.2415931074
 H         -0.6025161168        3.2302304749       -1.7492358592
 H          2.4638978968        3.0954415729       -2.0366169678
