  62
        -98.94224524
 C         -1.8825104302       -1.3040885173       -0.0455252678
 C         -3.0486697373       -1.1957610778        0.7575367322
 C         -4.2147419808       -0.5607785663        0.1355975974
 C         -4.1419850286       -0.1431206213       -1.1407405931
 C         -5.2520111196        0.4949991521       -1.9308308985
 C         -5.3917769708        2.0063786912       -1.7032835354
 C         -5.9716697556        2.4088358041       -0.3467234043
 H         -6.2176241793        3.4709721249       -0.4060400297
 H         -6.9032442269        1.8682991945       -0.1762869114
 C         -5.0217550724        2.1883834795        0.8390313171
 H         -4.0002290369        2.0661224844        0.4709017077
 H         -5.0253629960        3.0742958563        1.4781494764
 C         -5.3758397521        0.9917143578        1.7222135938
 H         -6.3403854613        1.1653331590        2.2044657008
 H         -4.6176465647        0.9087020074        2.5051767393
 C         -5.4365234863       -0.3480994346        0.9770153630
 H         -5.4740119143       -1.1508219405        1.7174689718
 H         -6.3352035873       -0.3962178251        0.3622599674
 H         -4.4119225941        2.4720547913       -1.8328688089
 H         -6.0493699115        2.3940554180       -2.4848261622
 H         -5.0208199773        0.3255872368       -2.9847747285
 H         -6.1966384064        0.0023389915       -1.6986693606
 O         -3.0151123227       -0.2787424798       -1.8853874991
 C         -1.8526911475       -0.8329948740       -1.3586713297
 O         -0.9013889831       -0.8364211752       -2.1626196559
 O         -3.1122617168       -1.6230851037        1.9409559893
 C         -0.6761333065       -1.9629309128        0.6006409282
 C          0.2733298853       -0.9457696462        1.1793858127
 C          0.7405294249       -1.0653119925        2.4828775711
 C          1.6283690784       -0.1385016912        3.0021731225
 C          2.0704350606        0.9226069832        2.2327404147
 C          1.6098608902        1.0502934535        0.9283272650
 C          0.7186916152        0.1213650019        0.4108735292
 H          0.3680256555        0.2243413879       -0.6056006927
 N          2.0589795663        2.1216550715        0.1286758363
 S          3.7152626822        2.2420591391       -0.1031878246
 O          4.3296566736        2.6850997991        1.1228436195
 O          3.8832897776        3.1042862081       -1.2502198008
 C          4.2385892483        0.5818466134       -0.4857388415
 C          4.1222680891        0.1424785737       -1.7895721327
 C          4.4583896492       -1.1679527480       -2.0879486303
 C          4.8882077608       -2.0163613885       -1.0789961829
 C          4.9969289242       -1.5604800816        0.2255281786
 C          4.6707139447       -0.2483769584        0.5291951111
 H          4.7494809944        0.1461238475        1.5285752614
 H          5.3307039547       -2.2230409718        1.0074871488
 H          5.1376037753       -3.0392261436       -1.3116908835
 H          4.3740589298       -1.5239227804       -3.1020585125
 H          3.7825585757        0.8327755647       -2.5453330906
 H          1.5905049984        2.1625575984       -0.7657277589
 H          2.7647894520        1.6518891632        2.6177203695
 H          1.9785656510       -0.2415322454        4.0178291483
 H          0.3927319864       -1.8847753492        3.0945099065
 H         -1.0959449964       -2.5354659057        1.4427631037
 C          0.0214505452       -2.9597960779       -0.3160198826
 C          1.3487359923       -2.7134299196       -0.9609177202
 C          1.2369801292       -3.6996259730        0.1600221659
 H          1.3208240443       -4.7523276511       -0.0620645924
 H          1.6481162809       -3.4121882317        1.1157510173
 H          1.4881083558       -3.0769922675       -1.9671760201
 H          1.8477907220       -1.7769896420       -0.7687088381
 H         -0.6951959318       -3.5273498688       -0.9018609449
