  62
        -98.93302425
 C         -2.1152982612       -0.3502723246        0.3967473616
 C         -3.1798979181       -0.5823204992       -0.5069504782
 C         -4.1297425646        0.5296001570       -0.6979757560
 C         -3.9341829359        1.6921700546       -0.0549997041
 C         -4.7504912621        2.9579270206       -0.1345548888
 C         -6.2793375908        2.8154112636       -0.1049982354
 C         -6.8079642982        1.6348872289        0.7229226946
 H         -6.0042722631        1.2123862686        1.3285201917
 H         -7.5750765347        1.9988973717        1.4090037860
 C         -7.4326324402        0.5340780943       -0.1380379674
 H         -8.0469193935        1.0014400623       -0.9107401320
 H         -8.0964716609       -0.0666470589        0.4883169906
 C         -6.4427975973       -0.4251946264       -0.7979684462
 H         -5.9869002221       -1.0669149910       -0.0392768692
 H         -7.0039774389       -1.0760297369       -1.4726648818
 C         -5.3041085570        0.2397162300       -1.5884581697
 H         -4.9490450562       -0.4767844220       -2.3337585962
 H         -5.6490628249        1.1335818857       -2.1019575820
 H         -6.6564192530        2.7302200082       -1.1231868290
 H         -6.6745624679        3.7489124658        0.2990569289
 H         -4.4217126371        3.5599690798        0.7159248634
 H         -4.4580464204        3.4955447184       -1.0411803402
 O         -2.8778550634        1.8848672551        0.7863750159
 C         -1.9645165547        0.8795576289        1.0427801109
 O         -1.0779901696        1.1960479694        1.8636773897
 H          1.5180018558       -0.6575130961        0.9236373265
 C          1.2849414344       -1.0569072747       -0.0524083344
 C         -0.0068187536       -1.4773458042       -0.3370195650
 C         -0.2887603065       -1.9667765915       -1.6083211808
 C          0.7040519375       -2.0259798797       -2.5687058714
 C          1.9898749831       -1.6028493144       -2.2832865622
 C          2.2834669590       -1.1162996632       -1.0144355639
 N          3.5958077554       -0.7273178810       -0.6919917223
 S          3.8502200018        0.5548780849        0.3752813317
 O          3.6150207553        0.0950805414        1.7205973112
 O          3.1073627348        1.7187319868       -0.0555571651
 C          5.5990023721        0.8058606200        0.1308195859
 C          6.0401569051        1.8564003940       -0.6507613147
 C          7.4024608295        2.0157281384       -0.8527510399
 C          8.2948221903        1.1249108603       -0.2758081087
 C          7.8369132297        0.0752931581        0.5070960145
 C          6.4767509860       -0.0885820904        0.7144010953
 H          6.0745358448       -0.8826575341        1.3214282030
 H          8.5337463622       -0.6139593662        0.9560211055
 H          9.3540534496        1.2509421043       -0.4351502589
 H          7.7612913083        2.8323644982       -1.4582161812
 H          5.3094259819        2.5273882536       -1.0732177616
 H          4.1804871750       -0.6308865349       -1.5117833573
 H          2.7628441087       -1.6499525252       -3.0354456453
 H          0.4727527841       -2.4022101371       -3.5538507764
 H         -1.2954102628       -2.2776788042       -1.8399476792
 C         -1.0665840245       -1.3982283141        0.7363495571
 H         -0.5779723586       -1.0364265214        1.6520525309
 C         -1.6601157936       -2.7648716420        1.0204509630
 C         -0.8584892878       -3.7466833946        1.8182621451
 C         -2.0732732849       -3.1061448029        2.4187346390
 H         -2.9582874096       -3.7077462982        2.5620673780
 H         -1.9292282062       -2.3528181889        3.1803411457
 H         -0.9074480058       -4.7906817893        1.5499948357
 H          0.1102498872       -3.4269219048        2.1730908039
 H         -2.2718148242       -3.1466174282        0.2142939989
 O         -3.3541870666       -1.6558924562       -1.1402961841
