  62
        -98.94103099
 C         -2.5729484974       -0.2021609405        0.4902720144
 C         -2.2048759707        0.3367838358       -0.7676615851
 C         -2.0197653138        1.7953686083       -0.8123098414
 C         -2.2110258550        2.5237831633        0.3009772029
 C         -2.0717366019        4.0158801968        0.3909887211
 C         -0.6639556504        4.4370860221        0.8307152391
 C          0.4633548559        3.7730113177        0.0398901851
 H          1.4026950804        4.2035981456        0.3955279220
 H          0.4970130376        2.7068051382        0.2760235548
 C          0.3679573042        3.9459710882       -1.4822423198
 H         -0.2834077603        4.7876063345       -1.7228702187
 H          1.3624012859        4.1839675309       -1.8653215399
 C         -0.1101511636        2.6974898937       -2.2272298240
 H          0.1291293955        2.8177876361       -3.2874340386
 H          0.4373267337        1.8266065739       -1.8566353668
 C         -1.6114677089        2.3965692226       -2.1270567615
 H         -2.1866666454        3.3011333982       -2.3375961470
 H         -1.8553028378        1.6479818339       -2.8866167721
 H         -0.5376747986        4.1786883550        1.8849502948
 H         -0.5873003848        5.5223846806        0.7351080566
 H         -2.3052578800        4.4514617008       -0.5788426624
 H         -2.7934138565        4.3797828197        1.1251735585
 O         -2.5485235596        1.9707359657        1.4958123972
 C         -2.6937302873        0.5995893195        1.6261177383
 O         -2.9380052678        0.2206702663        2.7915138901
 H         -0.1714835185       -1.0888145849        0.8912656091
 C         -0.3091530641       -1.9489538785        0.2505219947
 C         -1.5945192164       -2.4296371590        0.0271042337
 C         -1.7509457150       -3.5503781071       -0.7759299669
 C         -0.6453439911       -4.1587362781       -1.3476148603
 C          0.6255232612       -3.6531078070       -1.1551035811
 C          0.7909193877       -2.5207600617       -0.3617077007
 N          2.0609182184       -1.9371199057       -0.2192272146
 S          2.3161743564       -0.5698228843        0.7121537444
 O          2.1802973915       -0.8723379800        2.1232266535
 O          1.5037257939        0.5039185203        0.2030707925
 C          4.0294235467       -0.2690382821        0.3244237127
 C          4.3318314036        0.4549215532       -0.8129568228
 C          5.6618105268        0.6649671657       -1.1406193779
 C          6.6623219380        0.1486518688       -0.3305679846
 C          6.3440079921       -0.5736454488        0.8096282222
 C          5.0154753718       -0.7868656915        1.1425556302
 H          4.7207989549       -1.3312684856        2.0253416013
 H          7.1239086053       -0.9701798985        1.4394956514
 H          7.6966719180        0.3133249225       -0.5878458369
 H          5.9120758293        1.2294126857       -2.0243381170
 H          3.5196610988        0.8420532936       -1.4064857563
 H          2.8317201147       -2.5876594622       -0.2079982544
 H          1.4819531044       -4.1137766123       -1.6220163371
 H         -0.7800705688       -5.0334083853       -1.9659075653
 H         -2.7362836688       -3.9406115579       -0.9706535314
 C         -2.7332872541       -1.6991156088        0.6983893013
 H         -2.6230472291       -1.8445744108        1.7872887721
 C         -4.1059355810       -2.2410300199        0.3246140271
 C         -5.3001624594       -1.3394021288        0.2357224952
 C         -4.7338105571       -1.9567796492       -1.0056245356
 H         -5.2957781963       -2.7440104808       -1.4865483121
 H         -4.1817351859       -1.3296575056       -1.6872644995
 H         -6.2442641572       -1.7047696700        0.6115202146
 H         -5.1440371516       -0.2829455737        0.4012037749
 H         -4.2845124523       -3.2241056457        0.7493956578
 O         -2.0522607061       -0.3513190823       -1.8100126243
