  62
        -98.93611104
 C          2.2298418258        0.7843589173        0.1383915634
 C          3.4232781811        0.9341648274        0.8900635614
 C          4.3830057512       -0.1827527508        0.8608529072
 C          4.0762971200       -1.2943345552        0.1673927294
 C          4.8244265693       -2.5992927102       -0.0091533453
 C          6.2947868913       -2.7159842608        0.3841880968
 C          7.2549916283       -1.9013049405       -0.4821174903
 H          8.2547769840       -1.9787265636       -0.0495035401
 H          7.2881481953       -2.3492814094       -1.4785257204
 C          6.9000866896       -0.4262950240       -0.6525587813
 H          5.9436316990       -0.3375662386       -1.1720906508
 H          7.6584209592        0.0275972169       -1.2963357807
 C          6.8415131173        0.3856968229        0.6398394391
 H          6.7393081212        1.4384721176        0.3627717049
 H          7.7798793817        0.2743735394        1.1863803531
 C          5.6786433437        0.0410273293        1.5863792924
 H          5.9193108170       -0.8136052446        2.2140270235
 H          5.5153572803        0.8973970676        2.2470755543
 H          6.5633051539       -3.7699816931        0.2719807733
 H          6.4242430291       -2.4690576646        1.4337743738
 H          4.7139618610       -2.8649565913       -1.0655056997
 H          4.2537777787       -3.3453649035        0.5551448754
 O          2.8937107936       -1.4145774662       -0.5020857320
 C          1.9502672791       -0.3965608174       -0.5492917366
 O          0.9473821979       -0.6848314273       -1.2292660146
 O          3.6783497222        1.9642122931        1.5687912564
 C          1.2434051040        1.9396061985        0.1688352840
 C         -0.1278929611        1.4347654513        0.5346376547
 C         -0.4309410644        1.1805234916        1.8688505842
 C         -1.6653317901        0.6720943123        2.2265833189
 C         -2.6177029048        0.3947271471        1.2612398601
 C         -2.3156558429        0.6229069157       -0.0741075671
 C         -1.0855250931        1.1616414925       -0.4283679495
 H         -0.8564877651        1.3262786997       -1.4696941067
 N         -3.2672833559        0.3329385799       -1.0652030333
 S         -4.1554192805       -1.0859169621       -0.9576158528
 O         -3.4433266921       -2.1310916061       -0.2601519567
 O         -4.5613901996       -1.3771707608       -2.3157505660
 C         -5.5942399504       -0.5999966788       -0.0238089733
 C         -5.9708941358       -1.3237456955        1.0904618747
 C         -7.0996953758       -0.9335135975        1.7944450086
 C         -7.8293866759        0.1672717990        1.3730163886
 C         -7.4400581624        0.8819886141        0.2499531896
 C         -6.3133016780        0.4963808513       -0.4583012787
 H         -5.9795409546        1.0222789232       -1.3370103547
 H         -8.0100359415        1.7374997443       -0.0749302419
 H         -8.7067381108        0.4694464658        1.9227877123
 H         -7.4037033386       -1.4889200211        2.6671619974
 H         -5.3704013020       -2.1704344440        1.3838062565
 H         -2.9188695993        0.4634296815       -2.0041326701
 H         -3.5760984041       -0.0174840859        1.5312293398
 H         -1.8889908204        0.4848134543        3.2659006924
 H          0.3191527771        1.3775444845        2.6223772817
 H          1.6025835761        2.5779337026        0.9919872304
 C          1.2410091389        2.8083806836       -1.0804498928
 C          2.5276380870        3.1454997922       -1.7712680715
 C          1.5148385763        2.2790807182       -2.4549287404
 H          0.9583573051        2.6982047012       -3.2810511545
 H          1.7226688069        1.2260125412       -2.5628683361
 H          2.6738875405        4.1524911097       -2.1315409066
 H          3.4271500133        2.6787005158       -1.3970067200
 H          0.5078850731        3.6063156690       -1.0087690330
