  62
        -98.93986269
 C          1.8172811252        1.0796613476        0.4697532732
 C          2.1877304323       -0.1836315176        0.9971963216
 C          3.5725419069       -0.6100022453        0.7627169358
 C          4.3996208816        0.1985959170        0.0758825517
 C          5.8171345499       -0.1338977833       -0.2876406881
 C          5.8925770224       -0.8268249727       -1.6555482207
 C          4.9133864366       -1.9900005119       -1.8156875266
 H          3.8921675767       -1.6019616851       -1.8010265574
 H          5.0781731650       -2.4192568407       -2.8064469908
 C          5.0522513249       -3.0889767132       -0.7528284570
 H          5.0215262385       -4.0613683132       -1.2490300694
 H          6.0220944298       -3.0076527777       -0.2605544473
 C          3.9459297877       -3.0920688630        0.3036724553
 H          2.9703229311       -3.0790962898       -0.1890269992
 H          4.0160256345       -4.0269478148        0.8661148168
 C          3.9912945500       -1.9422537895        1.3177970016
 H          3.2775883103       -2.1733714862        2.1138984397
 H          4.9884890570       -1.8799246655        1.7581797480
 H          5.6755398747       -0.0879967016       -2.4306691666
 H          6.9127829212       -1.1850088608       -1.8052254071
 H          6.3890723079        0.7946469893       -0.3291292597
 H          6.2425326325       -0.7768167378        0.4806221611
 O          4.0141839805        1.4031098250       -0.4138496536
 C          2.7164880660        1.8735013020       -0.2449212953
 O          2.5133567223        2.9806157824       -0.7771440602
 O          1.3936243804       -0.9201721692        1.6406860476
 C          0.3937897019        1.5350022228        0.7123110474
 C         -0.5246962995        1.3063517123       -0.4683744039
 C         -0.0569880606        1.0567572887       -1.7514686616
 C         -0.9367332508        0.8074785714       -2.7918064471
 C         -2.3015484557        0.7883681537       -2.5719257815
 C         -2.7818024252        1.0415874379       -1.2944436164
 C         -1.8987738257        1.3075113514       -0.2573833310
 H         -2.2840518348        1.4971594338        0.7341276535
 N         -4.1754378882        0.9496873713       -1.0640999753
 S         -4.7295460298       -0.6330366777       -0.9425432097
 O         -4.3546041896       -1.3411552773       -2.1380440640
 O         -6.1427532236       -0.5425368177       -0.6578035453
 C         -3.8570290903       -1.2697077523        0.4769955065
 C         -2.5247964204       -1.6102498353        0.3395660008
 C         -1.7977264124       -1.9438931918        1.4720301583
 C         -2.4198407836       -1.9489777141        2.7114239121
 C         -3.7634417968       -1.6263927647        2.8308375165
 C         -4.4874566605       -1.2659521975        1.7058415020
 H         -5.5279519596       -0.9872142238        1.7538457717
 H         -4.2421008495       -1.6396140388        3.7969873892
 H         -1.8445482148       -2.2021078374        3.5881681368
 H         -0.7431485921       -2.1576870304        1.3914776067
 H         -2.0750948380       -1.6087286859       -0.6404593351
 H         -4.4793617195        1.4624015973       -0.2468912001
 H         -2.9980340355        0.5594406042       -3.3614216185
 H         -0.5511466827        0.6161322173       -3.7819028886
 H          1.0067357843        1.0582228489       -1.9371144183
 H          0.0267306171        0.8965889956        1.5297817769
 C          0.3106945116        2.9828820274        1.1629168054
 C         -0.6673527865        3.3931087835        2.2212398546
 C          0.7983396443        3.3533840340        2.5304416193
 H          1.3341539907        4.2826268154        2.6505111530
 H          1.1640226148        2.5551860982        3.1600688392
 H         -1.1484719440        4.3549459410        2.1305481731
 H         -1.2873766879        2.6285902541        2.6650540070
 H          0.5129665948        3.6849007676        0.3634041588
