  62
        -98.93247879
 C         -2.2080193015       -0.1366106817        0.3739389705
 C         -3.2606941382       -0.6300907316       -0.4336233370
 C         -4.3749722953        0.2999151710       -0.6969001906
 C         -4.3374758707        1.5451503340       -0.1953776042
 C         -5.3327622137        2.6640725270       -0.3757507664
 C         -6.8233260684        2.3101942638       -0.2784119649
 C         -7.1593168248        1.1746417961        0.6992325531
 H         -6.2912962556        0.9460717014        1.3200919355
 H         -7.9580060527        1.5055798916        1.3657541449
 C         -7.6333186448       -0.0991266718       -0.0048147691
 H         -8.3239261422        0.1791052588       -0.8038622794
 H         -8.1901103738       -0.7088621914        0.7108201327
 C         -6.5266092991       -0.9792119859       -0.5843220920
 H         -6.9996447176       -1.7835311677       -1.1527417872
 H         -5.9637099154       -1.4485807987        0.2269411861
 C         -5.5179559620       -0.2598217584       -1.4947231566
 H         -5.0816682285       -1.0034561771       -2.1666972502
 H         -6.0033622324        0.5069471262       -2.0931582166
 H         -7.3429803494        3.2196772879        0.0278330671
 H         -7.2015894551        2.0508519032       -1.2662056313
 H         -5.0787263917        3.3947408196        0.3959633947
 H         -5.1396063813        3.1376415759       -1.3427316681
 O         -3.2970740421        1.9856150096        0.5685959650
 C         -2.2271699093        1.1672988689        0.8763292556
 O         -1.3677683285        1.7074567207        1.6034854677
 O         -3.2938447148       -1.7861566913       -0.9306064929
 C         -0.9884770004       -0.9620186036        0.7528856950
 C          0.0206568342       -0.9971612904       -0.3705632003
 C         -0.2343976027       -1.6689799204       -1.5619573659
 C          0.7182586907       -1.7005826966       -2.5634358896
 C          1.9445943391       -1.0829544415       -2.3924686065
 C          2.2043479341       -0.3995254620       -1.2104297737
 C          1.2406457498       -0.3557243397       -0.2126611246
 H          1.4527215123        0.1877223271        0.6972310705
 N          3.4286314774        0.2604111545       -1.0173464583
 S          4.0919071826        0.2747480717        0.5353471979
 O          3.9285147302       -1.0222212400        1.1529266608
 O          3.5604286234        1.4002801582        1.2622826227
 C          5.8098599015        0.5618919905        0.1518308553
 C          6.6623566200       -0.5188916023        0.0255579461
 C          7.9893118835       -0.2911842902       -0.3036366842
 C          8.4382358457        1.0057100664       -0.5031997741
 C          7.5712041596        2.0803318941       -0.3715690713
 C          6.2433773846        1.8599227607       -0.0413616045
 H          5.5355293553        2.6631053543        0.0818981282
 H          7.9243221083        3.0875213805       -0.5235908444
 H          9.4711403916        1.1805314653       -0.7596118563
 H          8.6665779741       -1.1240630141       -0.4027405841
 H          6.2709631190       -1.5083838924        0.1992766911
 H          4.1172190622        0.0267410061       -1.7196704158
 H          2.6922591725       -1.1207059545       -3.1702909268
 H          0.5082667929       -2.2237240288       -3.4841888933
 H         -1.1898284585       -2.1511973499       -1.6975368498
 H         -0.5214492255       -0.4288351259        1.5930573649
 C         -1.3307965762       -2.3666371520        1.2125223719
 C         -0.3026029684       -3.1391753944        1.9806921259
 C         -1.5320062080       -2.6321635054        2.6722937848
 H         -2.2886225302       -3.3437969911        2.9672093912
 H         -1.4274903923       -1.7983352237        3.3519828875
 H         -0.2149515500       -4.1997391524        1.8012160541
 H          0.6387697416       -2.6498249805        2.1867312110
 H         -1.9553366106       -2.9096095457        0.5159470993
