  62
        -98.95135814
 C         -2.3388728790       -0.0819733891        0.1133424722
 C         -1.6119675379        0.4823482001       -0.9612873970
 C         -1.4486364529        1.9405036618       -0.9279968403
 C         -1.8980807078        2.6357510650        0.1324667067
 C         -1.8100640330        4.1262485648        0.3183515502
 C         -0.4523773430        4.6062142618        0.8489565890
 C          0.6820255383        4.6086571096       -0.1761584202
 H          1.4998571236        5.1893992019        0.2552544216
 H          0.3539155761        5.1257786983       -1.0790030919
 C          1.2116456659        3.2149440751       -0.5412404847
 H          0.9221135695        2.4956501987        0.2288991842
 H          2.3049289691        3.2346818621       -0.5526262229
 C          0.7579075466        2.6998747099       -1.9063118522
 H          1.1798312554        1.7027255414       -2.0446268385
 H          1.1568580557        3.3474132197       -2.6909507518
 C         -0.7627810242        2.6071732577       -2.0841073351
 H         -0.9634286075        2.0052087023       -2.9741611951
 H         -1.1805167362        3.6028714384       -2.2360466588
 H         -0.1684545908        3.9816384070        1.6998251744
 H         -0.5867603050        5.6274163783        1.2139558596
 H         -2.0328534680        4.6293396479       -0.6233506311
 H         -2.5796153497        4.3932111763        1.0460345001
 O         -2.5259355235        2.0456961209        1.1843432214
 C         -2.7656190366        0.6824559096        1.1982017297
 O         -3.3656676182        0.2744824849        2.2155414923
 H         -0.5236936236       -1.0023912475        1.6947470021
 C         -0.3158927524       -1.8589013056        1.0699850528
 C         -1.2895797613       -2.3215614058        0.1941847737
 C         -1.0029593163       -3.4337126264       -0.5873243378
 C          0.2370320954       -4.0447973905       -0.5069075452
 C          1.2210530003       -3.5480694561        0.3287281644
 C          0.9402726281       -2.4399628300        1.1197654911
 N          1.9138376304       -1.8651329409        1.9641044949
 S          2.3566788223       -0.2830210133        1.6233662466
 O          3.4306959112        0.0131555854        2.5469931490
 O          1.2040148614        0.5769140756        1.6898442793
 C          3.0111037925       -0.3657703602       -0.0344172493
 C          4.3824932659       -0.3434189685       -0.2044922090
 C          4.9056894314       -0.4870203235       -1.4789538338
 C          4.0525817376       -0.6654004155       -2.5579818017
 C          2.6798727939       -0.6922562457       -2.3701079142
 C          2.1480303518       -0.5398732473       -1.0980329355
 H          1.0812203015       -0.5489093358       -0.9380439197
 H          2.0056209723       -0.8289312939       -3.2007141903
 H          4.4578264545       -0.7835452721       -3.5504697534
 H          5.9734668590       -0.4639280991       -1.6259381268
 H          5.0051242396       -0.2066007010        0.6649187093
 H          2.7487190205       -2.4269770033        2.0635751526
 H          2.1970518518       -4.0076738463        0.3691238135
 H          0.4464619296       -4.9083722127       -1.1193178095
 H         -1.7482263799       -3.8183775003       -1.2639483972
 C         -2.6025515660       -1.5777792158        0.1537530114
 H         -3.1278071641       -1.7657739915        1.1020705383
 C         -3.4991227737       -1.9904353550       -0.9947287854
 C         -4.4150490930       -3.1675870216       -0.8511450380
 C         -4.9768050174       -1.7786443910       -0.8689005534
 H         -5.5276230283       -1.4533178460       -1.7385127233
 H         -5.3392864406       -1.3589227476        0.0585854606
 H         -4.4061853520       -3.6965329255        0.0899224339
 H         -4.5855946093       -3.7972658891       -1.7112631685
 H         -3.0483859184       -1.8044150931       -1.9624910215
 O         -1.1343484096       -0.1944507098       -1.9099307770
