  62
        -98.94032153
 C          1.4271030457        1.1719162211        0.0661615419
 C          2.3931033695        0.8069656318        1.0290341645
 C          3.0602127706       -0.4926450682        0.8328917904
 C          2.7081555611       -1.2647922744       -0.2122573371
 C          3.1729988504       -2.6460586728       -0.6257709487
 C          4.4627055622       -3.2391098044       -0.0633478557
 C          5.7394828688       -2.5098347902       -0.4785722783
 H          6.5796870188       -2.9724559504        0.0440350713
 H          5.8931235677       -2.6574939913       -1.5504792414
 C          5.7571231201       -1.0065096340       -0.2123732470
 H          6.7287843625       -0.6219294361       -0.5340220350
 H          4.9991071217       -0.5155494905       -0.8260462363
 C          5.5561105061       -0.5974837112        1.2458496991
 H          5.7630297249        0.4737331577        1.3173388435
 H          6.2777760153       -1.1190985073        1.8775107905
 C          4.1447560353       -0.8335823159        1.8134431705
 H          4.0286758795       -1.8521066832        2.1772590775
 H          4.0083977464       -0.1642619378        2.6681724614
 H          4.4049148800       -3.3142742855        1.0186442375
 H          4.5272051487       -4.2610404003       -0.4472126469
 H          2.3494569697       -3.3265673757       -0.3810014287
 H          3.2404006765       -2.6204846288       -1.7178486572
 O          1.7434551998       -0.8819259223       -1.0991698148
 C          1.0924440411        0.3384142729       -1.0003839392
 O          0.2588325877        0.5516656423       -1.8970026439
 H         -0.5343345020        0.6503862565        1.6720957485
 C         -1.2502618810        1.2175557011        1.0893800363
 C         -0.7938239791        2.2411202062        0.2674725219
 C         -1.7257228831        2.9622379957       -0.4664845246
 C         -3.0726888965        2.6490766246       -0.3926892214
 C         -3.5192690327        1.6159102302        0.4095847811
 C         -2.5957688898        0.8966273506        1.1575512934
 N         -3.0363230056       -0.1724847275        1.9640725717
 S         -3.9410846827       -1.3511398038        1.1854441521
 O         -5.3023032017       -0.8941504372        1.0588579794
 O         -3.7496028031       -2.5537329038        1.9660842479
 C         -3.2033662805       -1.5243323605       -0.4281084409
 C         -1.9412155568       -2.0782270939       -0.5099389917
 C         -1.3344942679       -2.1853246062       -1.7495846254
 C         -1.9941270548       -1.7296366813       -2.8800204362
 C         -3.2597428348       -1.1748598632       -2.7815007893
 C         -3.8736988142       -1.0686229765       -1.5440138441
 H         -4.8571274867       -0.6446293366       -1.4232807734
 H         -3.7666637375       -0.8183099809       -3.6636778615
 H         -1.5102178481       -1.8009839516       -3.8409334330
 H         -0.3429944903       -2.6014500207       -1.8301586527
 H         -1.4559190620       -2.4223169068        0.3906444643
 H         -2.2909643187       -0.6041937392        2.4916947451
 H         -4.5619944382        1.3490908796        0.4680269238
 H         -3.7842678389        3.2140535060       -0.9750287121
 H         -1.3974761529        3.7638628100       -1.1072039429
 C          0.6927803730        2.4925497929        0.2067099056
 H          1.0150848963        2.9103926039        1.1721428766
 C          1.1017646107        3.4442167254       -0.8978522749
 C          1.0829082856        4.9251339361       -0.6682035299
 C          2.3896055813        4.1979030621       -0.7622886958
 H          2.9997118611        4.3402698888       -1.6416683013
 H          2.9593074465        4.0463789757        0.1430575420
 H          0.7978867489        5.5706190877       -1.4852346354
 H          0.7685439764        5.2772374865        0.3026505379
 H          0.8404312037        3.0729193795       -1.8824443120
 O          2.6789623236        1.5272540795        2.0246855815
