  62
        -98.94168118
 C          2.3839278481        1.2351928706        0.1694478298
 C          3.3036194226        0.5457727307        1.0002447812
 C          4.0816941785       -0.5210553338        0.3615623885
 C          3.8771395903       -0.8082734034       -0.9365475695
 C          4.6073228203       -1.8509113319       -1.7389717678
 C          4.0330016382       -3.2667407730       -1.5927444691
 C          4.3077330326       -3.9446291676       -0.2497127287
 H          4.0432325305       -4.9978332543       -0.3627805983
 H          5.3751694481       -3.8979131752       -0.0320132889
 C          3.5142002021       -3.3611402799        0.9278583965
 H          2.6773716996       -2.7711182490        0.5449333604
 H          3.0851686277       -4.1752053199        1.5168555235
 C          4.3389003543       -2.4962151231        1.8815961789
 H          5.0965411738       -3.1123132116        2.3705760132
 H          3.6717453497       -2.1063230440        2.6546963458
 C          5.0356174223       -1.3041785720        1.2124414358
 H          5.4050405863       -0.6394301825        1.9971084683
 H          5.8810758387       -1.6482931745        0.6172795400
 H          2.9548468530       -3.2266691005       -1.7677638736
 H          4.4738590165       -3.8802176805       -2.3818774734
 H          4.5225083771       -1.5522681702       -2.7860671947
 H          5.6619441271       -1.8544006544       -1.4619117952
 O          2.9619608586       -0.1482549865       -1.6932431541
 C          2.1751392025        0.8684743285       -1.1615302598
 O          1.3576350544        1.3429655374       -1.9708427900
 O          3.4636851858        0.8081838885        2.2223003237
 C          1.5497793899        2.3335325624        0.8055852188
 C          0.0925581423        2.1246439524        0.4779615309
 C         -0.6907100242        3.0497678558       -0.1978821085
 C         -2.0156403617        2.7680386850       -0.4829320512
 C         -2.5877990517        1.5694844533       -0.0991717155
 C         -1.8119911475        0.6343798389        0.5737782474
 C         -0.4878579264        0.9218295684        0.8631961782
 H          0.1190998047        0.1891179540        1.3826731442
 N         -2.3847289901       -0.5856904285        0.9774467994
 S         -3.2289992315       -1.4821598298       -0.1655242150
 O         -3.1675969322       -2.8468244707        0.3134158560
 O         -2.7367099003       -1.2485701977       -1.5032430776
 C         -4.9012583032       -0.8902581409       -0.0115393768
 C         -5.4981369402       -0.9394829709        1.2331065273
 C         -6.8004064140       -0.4859081550        1.3686345481
 C         -7.4808703552        0.0034596508        0.2634759818
 C         -6.8690129864        0.0422704258       -0.9800510938
 C         -5.5658569999       -0.4089229356       -1.1223201168
 H         -5.0464945789       -0.3920807601       -2.0674804414
 H         -7.3991655518        0.4225820129       -1.8383898404
 H         -8.4941568013        0.3566786264        0.3717319455
 H         -7.2795890191       -0.5147434902        2.3339255156
 H         -4.9357638875       -1.3300617891        2.0645926373
 H         -1.7463049573       -1.1812837248        1.4853461295
 H         -3.6168743717        1.3450925643       -0.3274520230
 H         -2.6111211661        3.4925757086       -1.0171992222
 H         -0.2569458245        3.9793422041       -0.5272611415
 H          1.6768045713        2.1733767125        1.8898891769
 C          2.0411012520        3.7446110914        0.5220779425
 C          3.4879175582        4.0142615510        0.2387556059
 C          2.4668360370        4.1937360497       -0.8423532703
 H          2.2198332083        5.1996334119       -1.1493404544
 H          2.4270802911        3.4716246950       -1.6423830226
 H          3.9409168428        4.8930448488        0.6724924874
 H          4.1527392610        3.1647209835        0.1777005675
 H          1.5295768960        4.4788819456        1.1368768892
