  62
        -98.94587903
 C         -1.6936322952       -1.3079779109        0.4204490057
 C         -1.2979771083       -0.2183483568       -0.3918546618
 C         -1.8987359563        1.0792357133       -0.0620716286
 C         -2.7183571607        1.1896522495        0.9975512740
 C         -3.3861861809        2.4500521322        1.4765535253
 C         -4.6848555600        2.7935185457        0.7333368224
 C         -4.5034215534        3.3024765914       -0.6973603994
 H         -5.4651737554        3.7095649556       -1.0156979205
 H         -3.7850088301        4.1227632016       -0.6998650554
 C         -4.0650467204        2.2278480195       -1.7019687983
 H         -4.2503324849        1.2378788979       -1.2788195532
 H         -4.6703525084        2.3076411082       -2.6075924806
 C         -2.5991460408        2.3181322512       -2.1259200262
 H         -2.4306355920        3.2524199219       -2.6656514250
 H         -2.3884617878        1.4909514189       -2.8081556548
 C         -1.6018007691        2.2401121736       -0.9624272465
 H         -0.5991558992        2.0950990247       -1.3720984051
 H         -1.6087885659        3.1698302053       -0.3934570387
 H         -5.3271066998        1.9096723731        0.7278661420
 H         -5.1931787452        3.5692787647        1.3106842465
 H         -3.6227378009        2.2931249217        2.5314394208
 H         -2.6866172306        3.2834739511        1.4013725842
 O         -3.0270330653        0.1315249819        1.7947523994
 C         -2.5226076814       -1.1311861751        1.5297627519
 O         -2.8771183725       -2.0048388579        2.3485375612
 H          0.6078868228       -1.3876764514        1.7107727064
 C          1.1020722358       -1.8724033150        0.8803210320
 C          0.3564076307       -2.6136751297       -0.0291530593
 C          1.0193553884       -3.2244181765       -1.0856587466
 C          2.3882184507       -3.0780500411       -1.2339715850
 C          3.1178856295       -2.3015919590       -0.3530775560
 C          2.4624874306       -1.6864408505        0.7074553192
 N          3.1487853393       -0.8525541191        1.6177114257
 S          2.7412983529        0.7745267712        1.5892936748
 O          3.5917485662        1.3929955519        2.5848020016
 O          1.3219041701        0.9307573560        1.7763065452
 C          3.2446044462        1.3241253438       -0.0326197230
 C          4.4564437110        1.9764601033       -0.1610025422
 C          4.8911517994        2.3453873663       -1.4233928424
 C          4.1148900932        2.0468272137       -2.5333534486
 C          2.9044586652        1.3876136667       -2.3871001409
 C          2.4597538321        1.0178433629       -1.1262262502
 H          1.5187544529        0.5057179568       -0.9928592041
 H          2.2955128983        1.1505587098       -3.2448519459
 H          4.4536967600        2.3296166058       -3.5175932598
 H          5.8317349388        2.8597775857       -1.5376289402
 H          5.0237126264        2.1879616819        0.7311223304
 H          4.1553336851       -0.9352547679        1.5610409788
 H          4.1807517500       -2.1641104720       -0.4846668177
 H          2.8892971653       -3.5583777633       -2.0604216796
 H          0.4631891225       -3.7991873124       -1.8076571300
 C         -1.1328129797       -2.7034864160        0.2030292373
 H         -1.2902132212       -3.2243609937        1.1626953517
 C         -1.8657405478       -3.5121803631       -0.8579680796
 C         -3.2813861187       -3.1927048599       -1.2334690032
 C         -2.1740045069       -2.9489705816       -2.2116749422
 H         -2.0974888621       -3.6016681475       -3.0689574861
 H         -1.8721200083       -1.9322103801       -2.4050097106
 H         -3.9602822677       -4.0129792971       -1.4129482896
 H         -3.7451348489       -2.3400930933       -0.7581675405
 H         -1.6126610315       -4.5668716977       -0.8124333533
 O         -0.4866692303       -0.3124474832       -1.3493748614
