  62
        -98.94466405
 C         -2.1366704192       -0.9839953661       -0.4398214373
 C         -3.1785880022       -1.2234897613        0.4901933175
 C         -4.4440126638       -0.5301597444        0.2286532394
 C         -4.5566858784        0.2686378925       -0.8481266686
 C         -5.7870776427        1.0309199313       -1.2591210909
 C         -5.9513031486        2.3797732152       -0.5453222451
 C         -6.3614896390        2.2924162436        0.9253311595
 H         -6.6525995267        3.2977853940        1.2361751637
 H         -7.2417316350        1.6555440094        1.0187290420
 C         -5.2558009441        1.7874531086        1.8629076062
 H         -4.2881292284        1.8679566033        1.3618202180
 H         -5.2104191939        2.4255685511        2.7483538692
 C         -5.4442478489        0.3504981083        2.3495492832
 H         -6.3421154310        0.2879228427        2.9683436949
 H         -4.5866231467        0.0850725769        2.9727804737
 C         -5.5523500306       -0.6880534056        1.2254268449
 H         -5.4624880279       -1.6830069374        1.6681937436
 H         -6.5213823497       -0.6103486005        0.7330975163
 H         -5.0146406792        2.9359124063       -0.6301367994
 H         -6.7200731259        2.9407313585       -1.0818445577
 H         -5.6931880858        1.2181145226       -2.3310321024
 H         -6.6726336717        0.4177240017       -1.0897348027
 O         -3.5359727324        0.4649556001       -1.7237386499
 C         -2.2980409056       -0.1345920926       -1.5343571367
 O         -1.4544937295        0.1585198877       -2.4030897011
 H          1.2511010706       -0.6196180470       -1.7424336455
 C          1.1877296672       -0.1651944346       -0.7666514318
 C          0.2175411730       -0.5829621330        0.1300459781
 C          0.1519187793        0.0346726507        1.3767892152
 C          1.0250189742        1.0525365035        1.7094035430
 C          1.9825377623        1.4789100008        0.8051665056
 C          2.0577522412        0.8676709432       -0.4389425886
 N          3.0270341373        1.2945140927       -1.3601248724
 S          4.5835981264        1.5597228823       -0.8139321320
 O          4.6669898194        2.8527588868       -0.1810256594
 O          5.4298523173        1.3680781485       -1.9707040518
 C          4.8747281306        0.2773187225        0.3924565661
 C          4.8168526890       -1.0361917626       -0.0300129967
 C          5.0071642389       -2.0475138656        0.8970853517
 C          5.2492335689       -1.7299884622        2.2250705374
 C          5.3083601628       -0.4066208438        2.6326726775
 C          5.1180366414        0.6092606638        1.7094102513
 H          5.1548736477        1.6508991288        1.9838897331
 H          5.4986967293       -0.1626009425        3.6654012497
 H          5.3933884422       -2.5197455433        2.9454135040
 H          4.9633243857       -3.0777119026        0.5820326192
 H          4.6329944268       -1.2489884539       -1.0707820796
 H          3.0115700650        0.7982323186       -2.2381851732
 H          2.6596459099        2.2845624068        1.0382532267
 H          0.9590968441        1.5232427084        2.6785213040
 H         -0.6041253598       -0.2902576576        2.0781361423
 C         -0.7925534823       -1.6523933393       -0.2027566006
 H         -0.9350985987       -2.2764982013        0.6901704124
 C         -0.3958978086       -2.5423047828       -1.3609341725
 C          0.6718844594       -3.5754965106       -1.1637617959
 C         -0.7578096678       -3.9954990218       -1.3223506176
 H         -1.0572895956       -4.4750928757       -2.2422587847
 H         -1.2861376314       -4.3553576496       -0.4517833575
 H          1.1143234493       -3.6497680751       -0.1821567209
 H          1.3568981480       -3.7723904105       -1.9743784725
 H         -0.4552388394       -2.0447639980       -2.3217653883
 O         -3.0564168123       -1.9823996735        1.4880244374
