  62
        -98.94251517
 C         -1.9588643695       -1.4407249313       -0.1334757205
 C         -1.7187160699       -0.0771960513       -0.4294239406
 C         -2.9132930400        0.7434314284       -0.6851507409
 C         -4.1315634799        0.1765305880       -0.6340729712
 C         -5.4281025800        0.9063758476       -0.8296570815
 C         -5.9846318605        1.4177630476        0.5065635483
 C         -4.9586338309        2.1662899380        1.3576600085
 H         -5.4716823413        2.5048658479        2.2604858483
 H         -4.1801442408        1.4681082882        1.6738647087
 C         -4.3076455711        3.3678750081        0.6583899185
 H         -4.9138681710        3.6712896978       -0.1960033617
 H         -4.2869514315        4.2081781282        1.3555185884
 C         -2.8667388309        3.1336635285        0.2003185989
 H         -2.4385990811        4.1010104886       -0.0753826711
 H         -2.2772752910        2.7384430587        1.0315700391
 C         -2.6945245704        2.1962270184       -1.0015388710
 H         -1.6577604503        2.2750999987       -1.3413897008
 H         -3.3472911203        2.5168963281       -1.8159582912
 H         -6.8344646907        2.0706225873        0.2991349780
 H         -6.3466039504        0.5616712375        1.0808385183
 H         -6.1480409097        0.2159364174       -1.2725437617
 H         -5.2712302101        1.7388732776       -1.5128152216
 O         -4.3239801696       -1.1356808620       -0.3425593211
 C         -3.2513339094       -1.9673316317       -0.0648400908
 O         -3.5726887291       -3.1355023117        0.2306189793
 O         -0.5748162700        0.4418546391       -0.4801059303
 C         -0.8202062793       -2.3995701610        0.1671037999
 C          0.1898592003       -1.7469647106        1.0802215601
 C         -0.2385636002       -1.2708017206        2.3175297699
 C          0.6480642294       -0.6696754003        3.1886039501
 C          1.9829703395       -0.5341469099        2.8480516704
 C          2.4242966499       -1.0141286299        1.6210627205
 C          1.5293609003       -1.6215781202        0.7486315804
 H          1.8960614606       -1.9677995402       -0.2023295395
 N          3.7837091600       -0.9325224795        1.2792293009
 S          4.3446680702       -0.4747173995       -0.2259436890
 O          3.7842201607       -1.3234371798       -1.2454934491
 O          5.7851247202       -0.5090733991       -0.0916815987
 C          3.8241161098        1.2176045703       -0.4501608693
 C          2.4860630797        1.5048757899       -0.6315500797
 C          2.1050541994        2.8310349498       -0.7689937099
 C          3.0550557691        3.8391590301       -0.7288648798
 C          4.3951703591        3.5320675305       -0.5463135594
 C          4.7841171095        2.2107521406       -0.4007513492
 H          5.8134398995        1.9247324709       -0.2559795189
 H          5.1348711489        4.3159394507       -0.5152492593
 H          2.7490872888        4.8676292700       -0.8398971699
 H          1.0587603794        3.0556651195       -0.9020760902
 H          1.7486695900        0.7187324297       -0.6578260798
 H          4.3658360897       -0.5245400093        1.9963313510
 H          2.6773374192       -0.0640684797        3.5279160505
 H          0.2988051191       -0.2997817103        4.1410478200
 H         -1.2828422302       -1.3733886809        2.5821796297
 H         -1.2852103492       -3.2307571310        0.7238636498
 C         -0.1867854189       -3.0095982709       -1.0748673499
 C         -0.9615290685       -3.1879583912       -2.3453163801
 C          0.1524851012       -2.1887909709       -2.2812166199
 H          1.0761876314       -2.3992526907       -2.8010435797
 H         -0.0999563491       -1.1405428210       -2.2576136901
 H         -0.8115726781       -4.0950046312       -2.9114751100
 H         -1.9776690386       -2.8213403615       -2.3709870904
 H          0.5045252013       -3.8093681207       -0.8250671497
