  62
        -98.93960016
 C         -2.7017307599       -0.7329393985        0.3111608895
 C         -2.7041650761        0.3703831925        1.1980208933
 C         -3.2577476276        1.6230797943        0.6689933791
 C         -3.7225202885        1.6536858826       -0.5935907849
 C         -4.2579772513        2.8763608931       -1.2796235448
 C         -3.1457621955        3.6206692941       -2.0318966784
 C         -1.8903161449        3.8651498124       -1.1944364185
 H         -1.4230070597        2.9043380820       -0.9653447803
 H         -1.1877138773        4.4222869544       -1.8178123512
 C         -2.1379669777        4.6348774582        0.1106648397
 H         -1.3676530964        5.4016467533        0.2159687753
 H         -3.0996909289        5.1465859988        0.0615359112
 C         -2.0864414797        3.7758040175        1.3755557631
 H         -2.0555995070        4.4446942094        2.2396879382
 H         -1.1636540234        3.1899159539        1.3827998782
 C         -3.2667926678        2.8176137396        1.5812804395
 H         -3.1983486972        2.4194112420        2.5979103562
 H         -4.2064307518        3.3657795446        1.4900583377
 H         -3.5442072523        4.5748785826       -2.3812285592
 H         -2.8637985928        3.0290091709       -2.9059489340
 H         -4.7135695079        3.5319476419       -0.5401475901
 H         -5.0210453512        2.5633716330       -1.9941192944
 O         -3.7065794826        0.5738330622       -1.4150760463
 C         -3.1748820720       -0.6382059035       -0.9980275808
 O         -3.1889976435       -1.5279106987       -1.8684695449
 O         -2.2542875990        0.3125423224        2.3753319226
 C         -2.1017852224       -2.0451404756        0.7864993899
 C         -0.8246556996       -2.3054357671        0.0241453125
 C         -0.5913916564       -3.4466082118       -0.7297939247
 C          0.6034423574       -3.5992236077       -1.4136910924
 C          1.5842477169       -2.6268468861       -1.3614115941
 C          1.3653554304       -1.4843707764       -0.6008799032
 C          0.1719860627       -1.3380402485        0.0891286313
 H          0.0000742427       -0.4513897466        0.6871469217
 N          2.3456036966       -0.4745690192       -0.5510121043
 S          3.9493250904       -0.9682502480       -0.3451929991
 O          4.4702824919       -1.3685814735       -1.6282172517
 O          4.0344188493       -1.9575494343        0.7058020874
 C          4.7120317522        0.5572643650        0.1682030293
 C          4.9519620759        0.7766000857        1.5112224991
 C          5.5232738265        1.9774314347        1.9023663047
 C          5.8387997506        2.9341574855        0.9493897029
 C          5.5911644730        2.6993457807       -0.3951655912
 C          5.0221642869        1.5002156097       -0.7934476419
 H          4.8205318059        1.2704120529       -1.8266521263
 H          5.8398533172        3.4452485815       -1.1327358172
 H          6.2830642933        3.8677321902        1.2566093700
 H          5.7192131453        2.1614433329        2.9464623052
 H          4.6965509462        0.0016232971        2.2162220505
 H          2.1066375686        0.2477699151        0.1150017044
 H          2.5172839495       -2.7380974222       -1.8900635864
 H          0.7721680979       -4.4900214356       -2.0000843299
 H         -1.3448582177       -4.2143353062       -0.7894571155
 H         -1.8344247454       -1.8761738929        1.8402413687
 C         -3.1059056455       -3.1739993615        0.7164110077
 C         -2.9338005334       -4.3790451712        1.5906810571
 C         -4.0289593227       -3.3969199710        1.8754147947
 H         -5.0490204050       -3.6867584053        1.6729394932
 H         -3.9224237292       -2.7443639310        2.7297581526
 H         -3.2030283951       -5.3465293844        1.1948503005
 H         -2.0821112231       -4.3964774172        2.2539374899
 H         -3.5112796415       -3.3160024799       -0.2784360606
