  62
        -98.94499645
 C         -2.1864443187        0.8509266727        0.0700830865
 C         -3.0446952369        0.5347793943       -1.0159558674
 C         -3.8141927996       -0.7096292964       -0.9005796226
 C         -3.6428642949       -1.4872406326        0.1836962359
 C         -4.3854371519       -2.7634062678        0.4518694132
 C         -5.6659816241       -2.5038344398        1.2577612725
 C         -6.5333064658       -1.3791507282        0.6922634496
 H         -7.4225156378       -1.3067560509        1.3221286392
 H         -5.9948018440       -0.4333863640        0.7860453015
 C         -6.9565460607       -1.5778777861       -0.7698575918
 H         -6.8329068957       -2.6239253251       -1.0523099135
 H         -8.0183773547       -1.3403920902       -0.8620334673
 C         -6.2134614193       -0.6915762336       -1.7711995541
 H         -6.2546390197        0.3489844917       -1.4398853590
 H         -6.7352077891       -0.7509316971       -2.7299701049
 C         -4.7460767037       -1.0581727183       -2.0270856197
 H         -4.6691513604       -2.1188166928       -2.2750259562
 H         -4.4031435279       -0.4783125937       -2.8888508477
 H         -6.2436937049       -3.4291914777        1.2943128480
 H         -5.3836953781       -2.2387787015        2.2793440005
 H         -4.6295747003       -3.2402428231       -0.4955163154
 H         -3.7330587849       -3.4259250950        1.0235556116
 O         -2.7949853642       -1.1673958940        1.1925491083
 C         -2.0513846902        0.0038602099        1.1700620528
 O         -1.3364162593        0.1548413383        2.1813854310
 H          0.6262767787        1.2302736652        1.5737061502
 C          0.9405137554        1.3099170569        0.5443627334
 C          0.0458744294        1.7697109796       -0.4113563565
 C          0.4591138704        1.8200482533       -1.7386465783
 C          1.7346296414        1.4216377212       -2.0962272732
 C          2.6198477847        0.9541055355       -1.1409351224
 C          2.2109657206        0.8859365383        0.1839677265
 N          3.0951564193        0.3779678438        1.1576642267
 S          3.6694294065       -1.1806915503        0.8859214463
 O          2.7483512017       -1.9553305815        0.0851642975
 O          3.9894383541       -1.7083830125        2.1946626396
 C          5.1850246494       -0.9157010539       -0.0121933914
 C          6.1609613513       -0.1344288902        0.5753831645
 C          7.3479403028        0.0788836185       -0.1070114653
 C          7.5392604737       -0.4917626510       -1.3567221825
 C          6.5513553793       -1.2767021320       -1.9313174210
 C          5.3609528599       -1.4930523764       -1.2543951815
 H          4.5617573592       -2.0907815631       -1.6631644017
 H          6.7015910556       -1.7200983543       -2.9025610802
 H          8.4638784619       -0.3242180240       -1.8861117790
 H          8.1186742417        0.6882876672        0.3366440555
 H          5.9728522285        0.2857561317        1.5491670448
 H          2.7157864573        0.4368615227        2.0930532135
 H          3.6113802827        0.6306167457       -1.4129422504
 H          2.0414281465        1.4695337358       -3.1299482764
 H         -0.2394352866        2.1553853651       -2.4918510062
 C         -1.3727675331        2.1315668206       -0.0435707123
 H         -1.8112265387        2.6743240240       -0.8914912171
 C         -1.4612000506        3.0094294333        1.1875063661
 C         -1.0468588822        4.4458933212        1.0843020212
 C         -2.4947348523        4.0928710799        1.2399337876
 H         -2.9788719297        4.2961309978        2.1834167846
 H         -3.1432061771        4.2074442198        0.3836383013
 H         -0.7124899034        4.7988713399        0.1205773900
 H         -0.5338711832        4.8953722742        1.9205215472
 H         -1.2493049022        2.4872469378        2.1114736034
 O         -3.1626277564        1.2658854991       -2.0348467262
