  62
        -98.93789333
 C          2.3044796106        0.6763586105       -0.3718360619
 C          3.6401934870        1.1293919954       -0.2110540261
 C          4.5331346685        0.2667183230        0.5725683656
 C          4.0372833148       -0.8498368099        1.1352208156
 C          4.8424067296       -1.8462622736        1.9168724140
 C          5.3991676378       -2.9487317712        1.0048599950
 C          6.0959360387       -2.4210394546       -0.2494418067
 H          6.4721735070       -3.2858343228       -0.8001600334
 H          5.3573079003       -1.9307660830       -0.8877928443
 C          7.2512761291       -1.4487406818        0.0268202185
 H          7.5778906886       -1.5464736064        1.0627284660
 H          8.0975648952       -1.7214738907       -0.6071164097
 C          6.9300729898        0.0180137647       -0.2661171268
 H          6.5164497200        0.1084459119       -1.2738178200
 H          7.8663905434        0.5819207928       -0.2458838877
 C          5.9658559637        0.6977337916        0.7142448865
 H          6.3142606907        0.5459187958        1.7378792197
 H          5.9776147388        1.7710463500        0.5028236463
 H          6.0983063096       -3.5546874014        1.5840033942
 H          4.5715031492       -3.5898939088        0.6927364743
 H          5.6577555769       -1.3307042815        2.4208051105
 H          4.1927197957       -2.3000550082        2.6672390754
 O          2.7388957695       -1.2216947270        1.0134350996
 C          1.8387112564       -0.4817444381        0.2536733639
 O          0.6931535868       -0.9687396240        0.2275897195
 H         -1.1316226977        0.4721847412       -1.5028133832
 C         -1.0867952470        1.1855535838       -0.6947176054
 C          0.1093941374        1.8225714977       -0.4101161272
 C          0.1559572339        2.7076603977        0.6631963407
 C         -0.9695462661        2.9487880469        1.4274098584
 C         -2.1645504610        2.3128384374        1.1389015978
 C         -2.2180625777        1.4198750943        0.0778851522
 N         -3.4273253916        0.7736374525       -0.2411904410
 S         -4.4279642461        0.2668619081        1.0197377465
 O         -5.1421653930        1.4155282225        1.5214682933
 O         -3.6802129272       -0.4861450127        2.0017101566
 C         -5.5517556282       -0.7964524108        0.1355320156
 C         -5.2796568302       -2.1492305445        0.0592839664
 C         -6.1433377644       -2.9670968441       -0.6523814584
 C         -7.2558419967       -2.4206075509       -1.2746401177
 C         -7.5150799531       -1.0607534744       -1.1895286833
 C         -6.6564523075       -0.2375697859       -0.4785526298
 H         -6.8208025351        0.8223481249       -0.3769711116
 H         -8.3821622628       -0.6407194349       -1.6731483178
 H         -7.9259783251       -3.0600962429       -1.8271449096
 H         -5.9453011323       -4.0249227077       -0.7181427575
 H         -4.4068713150       -2.5316179814        0.5649380014
 H         -3.2812491228        0.0198414511       -0.8992546635
 H         -3.0468163321        2.4834631979        1.7343473527
 H         -0.9190133132        3.6354164682        2.2594523847
 H          1.0920005595        3.1958989338        0.8987374416
 C          1.3707060444        1.5528769915       -1.1890070436
 H          1.9158105848        2.5057732368       -1.2887235181
 C          1.1095358037        1.0575453595       -2.6034109591
 C          2.2034216105        0.4028635246       -3.3916242385
 C          1.0103751942       -0.3939696078       -2.9611530687
 H          0.2925747086       -0.6838743662       -3.7149549573
 H          1.1297340292       -1.1192939372       -2.1718726461
 H          2.3092214661        0.6532173104       -4.4363178799
 H          3.1422341200        0.2294649265       -2.8858625380
 H          0.4608901452        1.7359581679       -3.1495322249
 O          4.0657075927        2.2089644947       -0.7017335332
