  62
        -98.94144458
 C          1.5992893384        1.1914814221        0.1587970641
 C          1.6679466849       -0.1466169210        0.6247880132
 C          2.7601135191       -0.9678043258        0.0937879292
 C          3.6134918640       -0.4377019345       -0.8011487465
 C          4.7612849620       -1.1509277536       -1.4629234794
 C          6.0473062603       -1.1780943663       -0.6258554247
 C          6.0162592338       -2.1149735582        0.5822608407
 H          7.0416270256       -2.2019622866        0.9470882201
 H          5.6994860397       -3.1082931957        0.2628746143
 C          5.1227634636       -1.6328543224        1.7336821462
 H          4.9072360207       -0.5693027568        1.6071001471
 H          5.6584664535       -1.7392165209        2.6797551181
 C          3.8029847424       -2.3914145487        1.8739858388
 H          3.2372724923       -1.9447577852        2.6958621446
 H          4.0049680684       -3.4332225947        2.1328681493
 C          2.9183497539       -2.3624480240        0.6205450444
 H          1.9270892999       -2.7300144886        0.8981410302
 H          3.3339210987       -3.0149275642       -0.1474074280
 H          6.2699310518       -0.1616364056       -0.2931405474
 H          6.8583097860       -1.4966506643       -1.2847618553
 H          4.4657526121       -2.1711150052       -1.7092337165
 H          4.9666698289       -0.6135404582       -2.3911769108
 O          3.5083790215        0.8440874806       -1.2350069772
 C          2.5105487923        1.6953651953       -0.7707432962
 O          2.5617173292        2.8356254638       -1.2646914054
 H         -2.0076100995        1.1607775306        1.3900834292
 C         -1.9378625474        1.4132224737        0.3428396798
 C         -0.7464047425        1.8891438674       -0.1826020112
 C         -0.6835146389        2.1894447943       -1.5409311264
 C         -1.7958293087        2.0255764510       -2.3449265197
 C         -2.9802326295        1.5370598332       -1.8194742389
 C         -3.0491457349        1.2220706484       -0.4683801616
 N         -4.2331039284        0.7133411451        0.0952545525
 S         -4.1478814753       -0.6967384125        1.0002067126
 O         -5.5211831329       -1.1393269810        1.1062660060
 O         -3.4665893295       -0.4420051320        2.2418962796
 C         -3.2305456744       -1.8229150471       -0.0346622351
 C         -3.9420024508       -2.5578410423       -0.9645512022
 C         -3.2561049274       -3.3831706204       -1.8394759488
 C         -1.8718856777       -3.4492803403       -1.7805713918
 C         -1.1741428627       -2.7040135031       -0.8438268203
 C         -1.8539139968       -1.8820525259        0.0424721454
 H         -1.3188279305       -1.3043501272        0.7801903014
 H         -0.0971528664       -2.7461657406       -0.7915568919
 H         -1.3333330871       -4.0855482268       -2.4651192604
 H         -3.7986483384       -3.9675431745       -2.5650411417
 H         -5.0173407611       -2.4801205613       -0.9712558640
 H         -5.0029503864        0.6559237695       -0.5568887675
 H         -3.8447051784        1.3996572086       -2.4510730167
 H         -1.7378161720        2.2698104150       -3.3948266757
 H          0.2462063597        2.5520621405       -1.9532940475
 C          0.4626069129        2.0376321603        0.7052234600
 H          0.2117428301        1.5781670188        1.6751560049
 C          0.8469820979        3.4844833068        0.9784962178
 C          0.2514861048        4.6550929964        0.2607325471
 C         -0.1245941490        4.3842238431        1.6843876198
 H          0.2428076537        5.0429336431        2.4566876244
 H         -1.1124865588        3.9900109846        1.8736376151
 H         -0.4866104922        4.4699954231       -0.5032486491
 H          0.9022374929        5.4883456791        0.0436863998
 H          1.8898289209        3.5811661031        1.2622699552
 O          0.8479539668       -0.6319354369        1.4502689302
