  62
        -98.94034019
 C         -1.4831661729       -1.2342471389        0.2867510137
 C         -1.5683991447        0.1813473328        0.3485005595
 C         -2.7666612523        0.7918120267       -0.2395182455
 C         -3.7006471696       -0.0034561238       -0.7916258288
 C         -4.9995166702        0.4750259207       -1.3717502021
 C         -6.1078490076        0.4992138964       -0.3098308257
 C         -5.7063509319        1.2010115997        0.9876371981
 H         -6.5751266317        1.1827326437        1.6493742423
 H         -4.9187760179        0.6227544497        1.4762648707
 C         -5.2316312815        2.6495197479        0.8057848683
 H         -5.7053199911        3.2715309377        1.5682858488
 H         -5.5550946105        3.0258855682       -0.1653460050
 C         -3.7205838995        2.8423520659        0.9468032582
 H         -3.5207301707        3.9148711279        1.0163784331
 H         -3.3787532136        2.3841458016        1.8782149237
 C         -2.8687711006        2.2905107582       -0.2030097822
 H         -3.2445477632        2.6724068183       -1.1543773288
 H         -1.8458105274        2.6510278610       -0.0630918526
 H         -6.3811192006       -0.5312736661       -0.0709453353
 H         -6.9836803544        0.9919275448       -0.7360999897
 H         -4.8597126740        1.4708952458       -1.7878328276
 H         -5.2912234573       -0.2064906738       -2.1725513789
 O         -3.5824959160       -1.3531251582       -0.8425877066
 C         -2.4678790159       -2.0086056103       -0.3263548554
 O         -2.5011977590       -3.2425842384       -0.4826224226
 H          2.2402326060       -0.7336042693        1.0754576040
 C          2.0728768291       -1.1840922250        0.1091479699
 C          0.8687180310       -1.8133973379       -0.1650875226
 C          0.6764500810       -2.3820694202       -1.4213521929
 C          1.6773703467       -2.3281923459       -2.3729250580
 C          2.8769658166       -1.6934711040       -2.0990334440
 C          3.0747047535       -1.1156438006       -0.8506469961
 N          4.2806796838       -0.4738186377       -0.5444382773
 S          4.3222151160        0.8323826696        0.4933919009
 O          5.5712648450        1.4919200799        0.1744110492
 O          4.1864399988        0.3853901734        1.8573581198
 C          2.9595887468        1.8921651912        0.0441367560
 C          2.7672205942        2.1979646641       -1.2886055152
 C          1.7380158324        3.0569627624       -1.6350794071
 C          0.9302000060        3.6015645953       -0.6487468275
 C          1.1388397184        3.2882967059        0.6840324570
 C          2.1616832286        2.4228977549        1.0353086345
 H          2.3456547966        2.1430042907        2.0601062463
 H          0.5035260900        3.7015887056        1.4503352965
 H          0.1301364119        4.2719888062       -0.9224867021
 H          1.5673647374        3.2990283840       -2.6720349015
 H          3.4152518722        1.7692925001       -2.0358599565
 H          4.9290738146       -0.3767923613       -1.3113051148
 H          3.6554880306       -1.6468141419       -2.8450332858
 H          1.5203409735       -2.7779075911       -3.3417105187
 H         -0.2649574530       -2.8655176069       -1.6376927960
 C         -0.2226556567       -1.8443668415        0.8735821853
 H          0.0784243221       -1.1549563985        1.6791466150
 C         -0.4220611374       -3.2138597255        1.5039098972
 C          0.1846803505       -4.4716509511        0.9659331061
 C          0.7206111360       -3.8655205335        2.2259051301
 H          0.5274084541       -4.3601474182        3.1658005926
 H          1.6814815201       -3.3739583402        2.1753662720
 H         -0.4027393753       -5.3747247720        1.0312330386
 H          0.7900082471       -4.4109056802        0.0754952011
 H         -1.4025793034       -3.3145382089        1.9571302360
 O         -0.6789112191        0.8975960731        0.8785245136
