  62
        -98.93653575
 C          2.1607550521        0.9919791720        0.1534375957
 C          2.6726262129        0.0727670149        1.0949252077
 C          3.0665189871       -1.2561576662        0.5882952838
 C          2.8843202116       -1.5293206588       -0.7174425615
 C          3.2339830740       -2.7894632447       -1.4638080966
 C          4.7408970075       -2.9193484070       -1.7381293773
 C          5.6413341194       -2.5803156645       -0.5532128459
 H          6.6760318011       -2.6102845400       -0.9043739131
 H          5.4378583047       -1.5576480577       -0.2307933368
 C          5.5261108445       -3.5233143658        0.6419776343
 H          5.7568146133       -4.5408361479        0.3191311320
 H          6.2880787233       -3.2234442213        1.3657753635
 C          4.1730817950       -3.5350190949        1.3566991931
 H          4.3158016171       -4.0419592246        2.3154961070
 H          3.4409687835       -4.1190758216        0.8053270096
 C          3.6097354592       -2.1536781761        1.6747684651
 H          2.7906442204       -2.2689523322        2.3952358858
 H          4.3721564531       -1.5665181645        2.1993218422
 H          4.9423993131       -3.9382410508       -2.0729428808
 H          4.9941160336       -2.2390400434       -2.5548678221
 H          2.8603697998       -3.6566463570       -0.9272051929
 H          2.7073142988       -2.7409258541       -2.4196996182
 O          2.3592435437       -0.6174822472       -1.5864847145
 C          1.9769734619        0.6483946428       -1.1855031590
 O          1.5020255815        1.3585654011       -2.0926662669
 H         -0.1900257963        0.6186925075        1.1845982704
 C         -0.6039139847        1.5011363838        0.7097673211
 C          0.2474826903        2.5393005672        0.3513744928
 C         -0.3029946604        3.6609647738       -0.2537929453
 C         -1.6613984272        3.7230821726       -0.5164698100
 C         -2.4989981748        2.6754452123       -0.1811043329
 C         -1.9603404780        1.5575832812        0.4398598883
 N         -2.8108368232        0.4707503763        0.7700679324
 S         -3.2257920713       -0.5104960412       -0.5473662179
 O         -2.2779779461       -1.6031676668       -0.6463241710
 O         -3.3945516275        0.3147365998       -1.7148295654
 C         -4.8078535039       -1.1366827032       -0.0157902903
 C         -5.9173349869       -0.3284947735       -0.1706117349
 C         -7.1477422139       -0.7866699622        0.2717572273
 C         -7.2470207311       -2.0380033026        0.8618799039
 C         -6.1243268643       -2.8376762099        1.0109297490
 C         -4.8905576476       -2.3842340950        0.5705348501
 H         -3.9932140665       -2.9754890292        0.6578505627
 H         -6.2041612828       -3.8110060451        1.4677747677
 H         -8.2055914845       -2.3932452568        1.2057022114
 H         -8.0232314470       -0.1683705608        0.1555972195
 H         -5.7927677223        0.6319178402       -0.6426093855
 H         -2.3773426732       -0.1340447912        1.4567959196
 H         -3.5520205063        2.7019310889       -0.4067890649
 H         -2.0702281700        4.5978270313       -0.9989649443
 H          0.3349310344        4.4822294743       -0.5367963680
 C          1.7224415151        2.3681731653        0.6213813254
 H          1.8786541311        2.3723644967        1.7106302535
 C          2.5846481679        3.4448544964       -0.0018991140
 C          2.8054580589        4.7441569476        0.7119090000
 C          3.9192375198        3.7473941601        0.6086040252
 H          4.7488591915        3.9629929726       -0.0477248101
 H          4.1955511805        3.1929899819        1.4936385192
 H          2.8733133031        5.6483779117        0.1261985576
 H          2.3296305838        4.8735490479        1.6720569919
 H          2.5141634160        3.4566711912       -1.0839102015
 O          2.7960458904        0.3442629983        2.3213849917
