  62
        -98.93467526
 C         -2.3193131363        0.1687269027       -0.1724304128
 C         -3.4468910288        0.4589399109       -0.9732961960
 C         -4.7200378225       -0.1658882670       -0.5740917079
 C         -4.7516223113       -0.9598716674        0.5128378298
 C         -5.8821931093       -1.7521053747        1.1363498470
 C         -7.3306824242       -1.5063108486        0.7221663207
 C         -7.8934223868       -0.1479918969        1.1401107958
 H         -8.8876629695       -0.0398702744        0.7012882125
 H         -8.0068497236       -0.1394168857        2.2270751160
 C         -7.0469879823        1.0634774792        0.7573900542
 H         -6.0805548496        1.0111288789        1.2629436794
 H         -7.5555973426        1.9575419781        1.1282687506
 C         -6.8133276458        1.2506153363       -0.7401650454
 H         -6.3326694263        2.2227542388       -0.8794804317
 H         -7.7717742958        1.2738175484       -1.2623448171
 C         -5.9175402817        0.1926809824       -1.4066226643
 H         -6.4844423672       -0.6972087658       -1.6690447707
 H         -5.5268578530        0.6186944322       -2.3354293000
 H         -7.4468429284       -1.6556402123       -0.3471575089
 H         -7.9297091887       -2.2763771824        1.2157619273
 H         -5.6424885770       -2.8048114375        0.9503747187
 H         -5.7885132765       -1.6029737378        2.2167362209
 O         -3.6306658546       -1.2175792349        1.2505494366
 C         -2.3984038507       -0.6683196586        0.9383441049
 O         -1.4785147813       -0.9969740522        1.7111234765
 O         -3.3927913121        1.2017897965       -1.9908430431
 C         -0.9839306015        0.7933022116       -0.5267535241
 C          0.0591340323       -0.2676136159       -0.7770961167
 C         -0.2572290353       -1.3510181078       -1.5937336260
 C          0.6791558774       -2.3290155625       -1.8651988491
 C          1.9594549281       -2.2389298304       -1.3471168703
 C          2.2868364456       -1.1613023901       -0.5341744557
 C          1.3382466133       -0.1875198763       -0.2510854743
 H          1.6230643300        0.6350236017        0.3832187328
 N          3.5712004084       -1.0431827738        0.0200876834
 S          4.2329816829        0.5023502250        0.1765215164
 O          3.7980145858        1.0754048050        1.4253650799
 O          3.9629093676        1.2782801639       -1.0125441000
 C          5.9698212387        0.1057623451        0.2692029247
 C          6.5064268089       -0.2692407550        1.4864979598
 C          7.8497736157       -0.6037425494        1.5514864763
 C          8.6295867849       -0.5592622595        0.4052467913
 C          8.0775323463       -0.1794106530       -0.8089080662
 C          6.7346184997        0.1556685303       -0.8811777700
 H          6.2647202044        0.4663918807       -1.8004735986
 H          8.6870438350       -0.1419988434       -1.6973714127
 H          9.6749615277       -0.8191740783        0.4592262137
 H          8.2831852885       -0.8964078615        2.4942074197
 H          5.8640992262       -0.2802816597        2.3517124797
 H          4.2323543881       -1.7011085526       -0.3692264862
 H          2.6941895070       -2.9990956824       -1.5650083198
 H          0.4146749206       -3.1648851507       -2.4955152607
 H         -1.2530838483       -1.4154075986       -2.0112867158
 H         -1.1525812247        1.3289193540       -1.4739714749
 C         -0.5774050854        1.7988305974        0.5300307423
 C          0.2949862243        2.9630495246        0.1707184955
 C         -1.1537834597        3.1809987482        0.4850759134
 H         -1.4138420353        3.6623159014        1.4158551088
 H         -1.8245137217        3.4109331174       -0.3299663179
 H          1.0378545066        3.2879929987        0.8844304809
 H          0.6151699621        3.0489936823       -0.8570824269
 H         -0.4414262458        1.3439633622        1.5057375193
