  62
        -98.94023565
 C         -1.3040135002       -1.3083409082       -0.1235041947
 C         -2.1577924039       -0.7495886619        0.8623278674
 C         -2.9521699096        0.4305007866        0.4782188338
 C         -2.8485142616        0.9115577711       -0.7744836244
 C         -3.4982763136        2.1017464165       -1.4500403315
 C         -4.6425511446        2.8516036889       -0.7738646408
 C         -5.9520693693        2.0672767781       -0.6849220334
 H         -6.6553360386        2.6407147022       -0.0773552158
 H         -6.3734493003        1.9840288087       -1.6900269151
 C         -5.8399699314        0.6545473759       -0.1168752702
 H         -6.8348141633        0.2019266513       -0.1487051324
 H         -5.1930657567        0.0516129471       -0.7574261505
 C         -5.3363083329        0.5666869972        1.3220168900
 H         -5.4379397921       -0.4731177227        1.6443857533
 H         -5.9659537832        1.1798348578        1.9697354465
 C         -3.8698879568        0.9770282387        1.5337600365
 H         -3.7718787655        2.0570546722        1.6094935219
 H         -3.5337505342        0.5482037085        2.4821017346
 H         -4.3355228419        3.2005518196        0.2076105291
 H         -4.8329822853        3.7417418293       -1.3795578192
 H         -2.6875375394        2.8121457191       -1.6482937265
 H         -3.8339840288        1.7437366186       -2.4288081440
 O         -2.0104619678        0.3428426868       -1.6891757870
 C         -1.2187717914       -0.7567428804       -1.3998654750
 O         -0.5105422343       -1.1157966261       -2.3627467911
 H          1.4329678775       -1.6017157823       -1.4003490643
 C          1.7705534940       -1.5836308566       -0.3751140730
 C          0.9285892728       -2.0405402390        0.6287739433
 C          1.3700461864       -1.9771379517        1.9453720405
 C          2.6215046312       -1.4677577228        2.2472296701
 C          3.4480146719       -0.9905745710        1.2456714824
 C          3.0092223591       -1.0419606044       -0.0709504879
 N          3.8045265002       -0.4726304284       -1.0883520373
 S          4.1790376896        1.1433455432       -0.8302929118
 O          4.2298998230        1.7540964567       -2.1401973877
 O          5.3931349226        1.2273214357       -0.0565277445
 C          2.8217367768        1.7994314282        0.1302666869
 C          1.5433138255        1.7256787691       -0.3874456048
 C          0.4842182929        2.1838062175        0.3788080591
 C          0.7169759819        2.7083192331        1.6405263538
 C          2.0067706388        2.7848431665        2.1417844359
 C          3.0698153551        2.3224923452        1.3830344849
 H          4.0870914429        2.3513960487        1.7379287529
 H          2.1850035493        3.1948074600        3.1226696304
 H         -0.1149282405        3.0541143864        2.2333424634
 H         -0.5213410831        2.1144387107       -0.0059849128
 H          1.3794802689        1.3103315807       -1.3701820716
 H          3.3984371160       -0.5877128673       -2.0069457269
 H          4.4140108191       -0.5624222353        1.4602570586
 H          2.9508739775       -1.4274421968        3.2739703492
 H          0.7137884925       -2.3093079039        2.7362072680
 C         -0.4675931695       -2.5079108439        0.2962299500
 H         -0.9304764034       -2.8719806431        1.2226490831
 C         -0.4686552887       -3.6340446262       -0.7169251852
 C         -0.0789014407       -5.0100713932       -0.2698388324
 C         -1.5059791353       -4.7101290752       -0.6152033129
 H         -1.9150276478       -5.1180448920       -1.5274107184
 H         -2.2221691952       -4.6409813002        0.1905562317
 H          0.4954190329       -5.6271942244       -0.9435909233
 H          0.1725264098       -5.1440843989        0.7713159692
 H         -0.1749249039       -3.3265075116       -1.7119465882
 O         -2.2521440384       -1.2186992288        2.0262971911
