  62
        -98.94339716
 C          1.9299570010        0.7676573131        0.5484327524
 C          2.2222925165        0.1769371104       -0.7040210433
 C          2.6132615195       -1.2369987368       -0.6636573121
 C          2.6121038418       -1.8983731629        0.5077978514
 C          2.9553222891       -3.3503423832        0.7048181715
 C          4.4602594694       -3.6248733194        0.8327168355
 C          5.2579011548       -3.4969210557       -0.4657356396
 H          6.2449672728       -3.9237910531       -0.2776324683
 H          4.7841893609       -4.0990372708       -1.2414930833
 C          5.4303526344       -2.0552134845       -0.9637340875
 H          5.2111739147       -1.3602645662       -0.1498729655
 H          6.4708354074       -1.8920589107       -1.2531598266
 C          4.5627462826       -1.6927290403       -2.1690828030
 H          4.8622468115       -2.2936620013       -3.0304583653
 H          4.7372412638       -0.6418683303       -2.4129860497
 C          3.0566896750       -1.8809353013       -1.9426782652
 H          2.5208746706       -1.3925534002       -2.7603256711
 H          2.8040581119       -2.9410726818       -1.9428460013
 H          4.8746857639       -2.9486699813        1.5840116971
 H          4.5736706300       -4.6455301179        1.2052658553
 H          2.4663539249       -3.6605894807        1.6309592159
 H          2.5434650948       -3.9373868426       -0.1165930463
 O          2.2712543758       -1.3065626774        1.6849375653
 C          1.9380246279        0.0371157667        1.7350367601
 O          1.6737394603        0.4593122989        2.8814320638
 H         -0.5972839930        0.6288811208        0.4082977291
 C         -0.7232128997        1.5270766196       -0.1803460437
 C          0.2904954595        2.4763035991       -0.2087251854
 C          0.1020804446        3.6261332092       -0.9652234260
 C         -1.0699296127        3.8097689480       -1.6784443638
 C         -2.0757908235        2.8624708473       -1.6473976575
 C         -1.8954333855        1.7056602426       -0.8956474708
 N         -2.8809287879        0.7050314444       -0.8781940767
 S         -3.0063279508       -0.3169666569        0.4548534538
 O         -3.0046235352        0.4543176995        1.6785361586
 O         -2.0115773238       -1.3556950253        0.3451348214
 C         -4.6284671758       -1.0007974676        0.1687468913
 C         -5.7221391308       -0.4243232956        0.7870944445
 C         -6.9842822200       -0.9380396211        0.5336385355
 C         -7.1311941677       -2.0120985670       -0.3312453986
 C         -6.0242645490       -2.5813200677       -0.9432606139
 C         -4.7593517388       -2.0728307639       -0.6936013928
 H         -3.8689616657       -2.4862116839       -1.1382437551
 H         -6.1414786636       -3.4183568444       -1.6124496227
 H         -8.1142018536       -2.4100858428       -0.5273108152
 H         -7.8458624161       -0.4997687142        1.0108616081
 H         -5.5574990053        0.4024363869        1.4592388536
 H         -3.7832272518        1.0270664379       -1.1999759387
 H         -2.9882800206        3.0070131007       -2.2051902923
 H         -1.2030531579        4.7069312258       -2.2637167853
 H          0.8738888010        4.3775805292       -0.9975361848
 C          1.5307191862        2.2289323978        0.6172929447
 H          1.2752913180        2.4250921204        1.6703360159
 C          2.7001793467        3.1093471135        0.2243759317
 C          2.8791267529        4.4597483878        0.8483952584
 C          3.7974175191        3.3354326041        1.2192441946
 H          4.8174404777        3.3607865664        0.8664645006
 H          3.6826541207        2.8779354239        2.1916989601
 H          3.2735509482        5.2603225772        0.2409469364
 H          2.1477967052        4.7747675430        1.5774992971
 H          2.9839059016        2.9797888061       -0.8137165556
 O          2.1626549816        0.7961119735       -1.7985360204
