  62
        -98.93967561
 C         -2.5642274929       -0.2466685546        0.0412555546
 C         -2.3236877289       -1.2693236235       -0.9022701025
 C         -1.6901441238       -2.4987275703       -0.3963578926
 C         -1.3829156712       -2.5804679234        0.9102793105
 C         -0.6568123837       -3.6922760338        1.6164048903
 C          0.8552490263       -3.4067631122        1.6476303889
 C          1.6340693078       -3.9532799320        0.4530086266
 H          2.6653461800       -3.6072877419        0.5542721189
 H          1.6427721664       -5.0452132720        0.4929806956
 C          1.1053270500       -3.5125439597       -0.9141377088
 H          1.9124150555       -3.6279183901       -1.6412174389
 H          0.8601571113       -2.4478916341       -0.8824444197
 C         -0.1074143439       -4.3299900170       -1.3840528644
 H         -0.2077322361       -5.2127189816       -0.7524552615
 H          0.0741420662       -4.6923792079       -2.3983282454
 C         -1.4396110031       -3.5695939835       -1.4237982190
 H         -1.5312731661       -3.0537537682       -2.3853238144
 H         -2.2623211111       -4.2920540997       -1.3782259695
 H          0.9943559180       -2.3234822384        1.6984472000
 H          1.2770133049       -3.8399069803        2.5571593584
 H         -1.0319833411       -3.7049134742        2.6418282793
 H         -0.8691092978       -4.6514467790        1.1529641887
 O         -1.6630069905       -1.5834872471        1.7936874123
 C         -2.2152700837       -0.3849435661        1.3845488471
 O         -2.3624115839        0.4545372605        2.2942020278
 O         -2.6140890960       -1.1532106830       -2.1268781612
 C         -3.0875096730        1.0942057801       -0.4381701497
 C         -2.0436536827        2.1583648912       -0.1904502384
 C         -2.3472909021        3.4653166204        0.1661271592
 C         -1.3332276580        4.3864137662        0.3742943383
 C         -0.0044738900        4.0247775065        0.2562982522
 C          0.3098836789        2.7154688226       -0.0964845234
 C         -0.7072435174        1.8129489142       -0.3485396710
 H         -0.4518755857        0.8093863102       -0.6558993662
 N          1.6493794273        2.2891663373       -0.1507788648
 S          2.0366467946        0.6777407615       -0.4002022123
 O          1.7598837344        0.2742396813       -1.7635297085
 O          1.4315457284       -0.1048509039        0.6463549151
 C          3.7998619247        0.7589916299       -0.1529293367
 C          4.6431312818        0.8116084812       -1.2462090554
 C          6.0102877634        0.9022743641       -1.0356571398
 C          6.5080657551        0.9401913094        0.2579414170
 C          5.6494729791        0.8841563635        1.3460597034
 C          4.2819316447        0.7932619677        1.1416850882
 H          3.5754432985        0.7384255011        1.9539783618
 H          6.0396787993        0.9102622974        2.3507019478
 H          7.5720605025        1.0106289126        0.4197652482
 H          6.6800402327        0.9423352557       -1.8795104715
 H          4.2104875613        0.7687397650       -2.2328209811
 H          2.2945443859        2.9394714373       -0.5727321787
 H          0.7833664205        4.7374229724        0.4422599715
 H         -1.5841317932        5.4004529887        0.6464474696
 H         -3.3767208661        3.7624864329        0.2841852450
 H         -3.2162541024        0.9872185887       -1.5267356012
 C         -4.4302389343        1.4163815419        0.1833386126
 C         -5.4472549809        2.2125040344       -0.5773486715
 C         -5.6559174365        0.7452782806       -0.3579496841
 H         -6.4187931212        0.4273467015        0.3364965166
 H         -5.5224472116        0.0768569268       -1.1962502493
 H         -6.0726717301        2.9035300965       -0.0325641458
 H         -5.1842518018        2.5410457536       -1.5715948515
 H         -4.3659829166        1.5534791209        1.2567841886
