  62
        -98.93935271
 C         -2.6441098713       -0.9185600597        0.4531808198
 C         -2.6453063709        0.2541099999        1.2486831104
 C         -3.5332202206        1.3331317904        0.8055880010
 C         -4.2755455708        1.1706768712       -0.3049529990
 C         -5.2557619405        2.1637209817       -0.8681381285
 C         -4.6171593803        3.2372960220       -1.7597432080
 C         -3.7963660899        4.2929409214       -1.0180990675
 H         -3.5901429397        5.0956817617       -1.7287483371
 H         -4.3962469597        4.7175751512       -0.2125526772
 C         -2.4644194000        3.7776949407       -0.4549462079
 H         -2.2052628503        2.8325570109       -0.9383632284
 H         -1.6690839398        4.4869228006       -0.6948828476
 C         -2.4522618699        3.5787628299        1.0608317920
 H         -2.5794227296        4.5429781197        1.5578707025
 H         -1.4757455700        3.1788385295        1.3455195217
 C         -3.5280040202        2.6160917300        1.5810249616
 H         -3.2987726501        2.3751007694        2.6219059215
 H         -4.5085954700        3.0895570403        1.5394751119
 H         -3.9889326505        2.7437357622       -2.5049575783
 H         -5.4268011802        3.7435290225       -2.2904536476
 H         -5.9636819307        1.5918604323       -1.4718730287
 H         -5.8006269903        2.6421237715       -0.0537793882
 O         -4.2299855711        0.0386913315       -1.0546268296
 C         -3.3982165714       -1.0205532789       -0.7164781702
 O         -3.4376406318       -1.9691763485       -1.5216923707
 O         -1.9396081908        0.3896244192        2.2849169704
 C         -1.7371387016       -2.0639122402        0.8731641791
 C         -0.5507206117       -2.1040036501       -0.0592326010
 C         -0.4034660721       -3.0426673596       -1.0713211915
 C          0.6963165879       -2.9949789695       -1.9112217116
 C          1.6667543982       -2.0219884299       -1.7592346612
 C          1.5318099185       -1.0811167703       -0.7455303007
 C          0.4301428086       -1.1309364304        0.0955962094
 H          0.3162314589       -0.3966659008        0.8832439798
 N          2.5102567189       -0.0802196907       -0.5874735502
 S          4.1219498487       -0.5884064711       -0.6605569106
 O          4.5092942886       -0.6699518906       -2.0468192607
 O          4.2956196584       -1.7965335316        0.1144174687
 C          4.9632230592        0.7752757482        0.1186510900
 C          5.2408140994        1.9028316585       -0.6307167295
 C          5.8844807998        2.9685960480       -0.0223444990
 C          6.2379619399        2.8896010172        1.3166311209
 C          5.9531706396        1.7510474069        2.0553357004
 C          5.3081806293        0.6819374074        1.4535831099
 H          5.0758323090       -0.2263650328        1.9863215495
 H          6.2315949697        1.6913118763        3.0951818103
 H          6.7414974502        3.7193529368        1.7869875313
 H          6.1101238300        3.8546836282       -0.5934404186
 H          4.9569794194        1.9150665891       -1.6700636294
 H          2.3447813391        0.4793190489        0.2384190601
 H          2.5301491981       -1.9827418598       -2.4038720612
 H          0.7993920276       -3.7278643391       -2.6975529919
 H         -1.1558666023       -3.8008753293       -1.2116088918
 H         -1.3675224014       -1.7852054108        1.8701365792
 C         -2.4788864920       -3.3778324800        0.9835697485
 C         -1.8509175623       -4.5104291106        1.7377073479
 C         -3.0345769320       -3.7929394205        2.3115516883
 H         -3.9860844722       -4.3025281303        2.3340678682
 H         -2.8742178417       -3.1313595510        3.1503341987
 H         -1.9874048026       -5.5151381804        1.3681011474
 H         -0.8837986622       -4.3347215311        2.1844525779
 H         -3.0664586321       -3.6149761694        0.1055007684
