  62
        -98.94469371
 C         -2.0699995201       -0.3671852772       -0.1741893020
 C         -3.0579238510       -0.8691272474        0.7098879153
 C         -4.2462601720       -0.0276092282        0.8972805157
 C         -4.3153001304        1.1600973290        0.2687583153
 C         -5.4841686136        2.0988745744        0.3363708568
 C         -6.4868331657        1.8220359510       -0.7926515147
 C         -6.8715049282        0.3489177614       -0.9298447438
 H         -7.6051025558        0.2783806562       -1.7358771857
 H         -5.9937051712       -0.2206947748       -1.2433596483
 C         -7.4520086336       -0.2770281712        0.3459436375
 H         -7.7822312980        0.5084016808        1.0267187500
 H         -8.3326127658       -0.8646684383        0.0780212817
 C         -6.4962530158       -1.2171964413        1.0827798423
 H         -7.0712710283       -1.7664126502        1.8330286376
 H         -6.0902467641       -1.9499728247        0.3809201318
 C         -5.3246430789       -0.5434132609        1.8082231340
 H         -4.8469620310       -1.2977022943        2.4402759892
 H         -5.7002953045        0.2548586827        2.4516265359
 H         -7.3827566999        2.4188786134       -0.6121873291
 H         -6.0446790319        2.1499917443       -1.7363177012
 H         -5.1110327293        3.1196678193        0.2370751329
 H         -5.9720563661        1.9938589570        1.3035221466
 O         -3.3344293151        1.6238485714       -0.5456118058
 C         -2.1927426300        0.8751122571       -0.7966225365
 O         -1.3915514994        1.4221105566       -1.5781710389
 O         -2.9492857290       -1.9698650882        1.3129977195
 C         -0.8225240945       -1.2063093967       -0.4000336705
 C          0.3447661671       -0.5073148229        0.2512021308
 C          0.5198698300       -0.6251283483        1.6276110755
 C          1.5473741149        0.0399682094        2.2695103050
 C          2.4210537066        0.8397923438        1.5535450119
 C          2.2539136562        0.9642400804        0.1808083162
 C          1.2304737582        0.2821868890       -0.4654492356
 H          1.1039332988        0.4023970968       -1.5294723988
 N          3.1333559552        1.7775722002       -0.5510609289
 S          4.7697599901        1.6696021533       -0.2334077047
 O          5.0923989221        2.4420707086        0.9409178260
 O          5.4232459241        2.0801653788       -1.4564426167
 C          5.0687645078       -0.0610012027        0.0830954802
 C          4.7859656588       -0.9632107275       -0.9234278711
 C          4.9827190760       -2.3138354046       -0.6876255667
 C          5.4551771080       -2.7376467648        0.5452846844
 C          5.7386976442       -1.8193138003        1.5438455553
 C          5.5426667941       -0.4668078156        1.3137168111
 H          5.7488393791        0.2805362423        2.0625075088
 H          6.1080528532       -2.1514878289        2.5006782504
 H          5.6038223650       -3.7903400472        0.7272125300
 H          4.7642962925       -3.0300184423       -1.4634243988
 H          4.4257728670       -0.6003737577       -1.8726133808
 H          2.9380020123        1.8131227034       -1.5400628989
 H          3.2167033832        1.3816579138        2.0385900008
 H          1.6686353145       -0.0598214746        3.3373645857
 H         -0.1719449219       -1.2370093062        2.1893725118
 H         -1.0037384968       -2.1424315541        0.1450934144
 C         -0.6092396698       -1.5295041617       -1.8636376077
 C          0.3370801657       -2.6288557014       -2.2405526973
 C         -1.1393844527       -2.8192197986       -2.4114982443
 H         -1.5482223405       -2.8238790304       -3.4109394602
 H         -1.6532120768       -3.4790714890       -1.7279319953
 H          0.9440161736       -2.5074774699       -3.1246745402
 H          0.8256179927       -3.1591718172       -1.4374462844
 H         -0.6650879969       -0.6612816062       -2.5089530986
