  62
        -98.94967586
 C         -1.4996313297       -1.0633140413        0.0408112377
 C         -2.5175365062       -0.6377476494        0.9245003712
 C         -3.0481996533        0.7108137864        0.6908090903
 C         -2.5242824118        1.4620802430       -0.2954203485
 C         -2.9963484815        2.8377090687       -0.6661274578
 C         -4.0875603117        2.7823195531       -1.7445988034
 C         -5.2132586504        1.7962191061       -1.4325242869
 H         -4.8097582804        0.7812214151       -1.4424087605
 H         -5.9389723809        1.8630108323       -2.2458092274
 C         -5.9215252650        2.0454470128       -0.0937384178
 H         -6.9998076253        1.9681893945       -0.2479422009
 H         -5.7149780132        3.0590509928        0.2516878017
 C         -5.5579368161        1.0513225314        1.0106787254
 H         -5.6745009309        0.0306680173        0.6377907796
 H         -6.2661069473        1.1825052350        1.8331587908
 C         -4.1471379463        1.1903920592        1.5971940511
 H         -4.0940328671        0.5602149020        2.4902118374
 H         -3.9722497468        2.2252603319        1.8998719250
 H         -3.6250152262        2.4872831758       -2.6891812069
 H         -4.5019941824        3.7846345110       -1.8671046458
 H         -3.3735221329        3.3372257380        0.2243188494
 H         -2.1417202634        3.3993433712       -1.0478062002
 O         -1.5290263127        1.0297138449       -1.1085454494
 C         -0.9876372033       -0.2352366769       -0.9571581103
 O         -0.0765120247       -0.5061821744       -1.7638304579
 H          0.4335270508       -0.5736995804        1.6034990553
 C          1.1066961317       -1.2953358439        1.1635327191
 C          0.6009846280       -2.3427736042        0.4042088118
 C          1.4961550919       -3.2571938065       -0.1380385162
 C          2.8587509351       -3.1079098749        0.0552292865
 C          3.3587170816       -2.0351378194        0.7703347108
 C          2.4708269279       -1.1206955473        1.3240209076
 N          2.9234913334        0.0108764048        2.0381410395
 S          2.6196898289        1.4966578349        1.3181133971
 O          3.2560058575        2.4695068857        2.1813780246
 O          1.2051039906        1.6611896305        1.1064753910
 C          3.5075167038        1.4104260145       -0.2270304262
 C          2.9424549979        0.7559158126       -1.3030380220
 C          3.6889674201        0.6229283381       -2.4647772263
 C          4.9740389576        1.1379487007       -2.5303027112
 C          5.5254511838        1.7935562152       -1.4393661352
 C          4.7891135393        1.9265699926       -0.2739576046
 H          5.1732024081        2.4296919721        0.5989103312
 H          6.5240478776        2.1964624144       -1.4923722902
 H          5.5473583882        1.0284983037       -3.4373500922
 H          3.2521017554        0.1123771550       -3.3080328447
 H          1.9377314181        0.3666515824       -1.2369374869
 H          3.9034146454       -0.0351173565        2.2851298617
 H          4.4223895221       -1.9020021710        0.8989981651
 H          3.5406674701       -3.8263162082       -0.3731359461
 H          1.1255561264       -4.0862400267       -0.7185093279
 C         -0.8930434230       -2.4425516663        0.2174863091
 H         -1.3325880018       -2.8406918543        1.1448745019
 C         -1.2917975194       -3.3416890801       -0.9359335573
 C         -1.4949807145       -4.8113955211       -0.7225500527
 C         -2.6748641081       -3.9180225045       -0.9556789575
 H         -3.1951599033       -3.9805922114       -1.8996705604
 H         -3.3170718764       -3.6863993731       -0.1183228355
 H         -1.3445326662       -5.1984297620        0.2738872346
 H         -1.2074267405       -5.4911773625       -1.5104362637
 H         -0.8736535180       -3.0117295442       -1.8805727685
 O         -2.9580751831       -1.3523360196        1.8672184275
