  62
        -98.94475387
 C          2.0202835539        1.0881264277       -0.3415726667
 C          3.0989981300        1.2062291424        0.5750087553
 C          4.3451185189        0.5290038002        0.2048577625
 C          4.4176209663       -0.1405962256       -0.9594274539
 C          5.6223649844       -0.8686632368       -1.4903146810
 C          5.7817740875       -2.2929251578       -0.9407966019
 C          6.2310803452       -2.3811645186        0.5183458864
 H          6.5134123825       -3.4194648963        0.7037336660
 H          7.1237976322       -1.7711658104        0.6599705353
 C          5.1584620092       -1.9726889155        1.5379095080
 H          5.1241267687       -2.7084858453        2.3445695492
 H          4.1767606329       -1.9807107452        1.0580660742
 C          5.3834588325       -0.6046644804        2.1822224198
 H          6.2978664067       -0.6268609958        2.7791797348
 H          4.5462383076       -0.4020698195        2.8549182645
 C          5.4801991243        0.5556433160        1.1831735938
 H          5.4175219849        1.4936848675        1.7400436910
 H          6.4351083572        0.5226036614        0.6590901135
 H          6.5268188252       -2.7990899136       -1.5590799393
 H          4.8340604827       -2.8228354430       -1.0626391000
 H          6.5228146665       -0.2921023927       -1.2765942971
 H          5.4970180529       -0.9296138517       -2.5735711359
 O          3.3710683811       -0.2148279933       -1.8211702449
 C          2.1464683417        0.3717683381       -1.5316254076
 O          1.2885224102        0.1824020620       -2.4177030936
 O          3.0231832504        1.8569782264        1.6503982473
 C          0.7159184503        1.7651873208        0.0475484925
 C         -0.2663186315        0.7446301707        0.5705724777
 C         -0.5258071698        0.6476293732        1.9331069315
 C         -1.4204934567       -0.2908642038        2.4173080634
 C         -2.0764884886       -1.1483750817        1.5528754123
 C         -1.8200319222       -1.0613600610        0.1901922887
 C         -0.9279992380       -0.1157286288       -0.2943545121
 H         -0.7173608487       -0.0700157829       -1.3520479049
 N         -2.4910469994       -1.9237988321       -0.6952658739
 S         -4.1537571944       -2.0250815192       -0.5253725097
 O         -4.4751189444       -2.9776090341        0.5088121905
 O         -4.6608203903       -2.3345386978       -1.8439280353
 C         -4.6643291475       -0.3918954150       -0.0174082591
 C         -5.2845149159       -0.2125893308        1.2020477811
 C         -5.6329804828        1.0698714053        1.5948222359
 C         -5.3512153376        2.1454764082        0.7674886653
 C         -4.7302935888        1.9483174611       -0.4564593664
 C         -4.3818153381        0.6686914988       -0.8555397140
 H         -3.9003323949        0.4833266748       -1.8024523259
 H         -4.5119236773        2.7865682205       -1.0982873488
 H         -5.6163214011        3.1442769952        1.0762580733
 H         -6.1174878483        1.2257257736        2.5451582696
 H         -5.4794652690       -1.0766883541        1.8160356600
 H         -2.2258816317       -1.7943665755       -1.6608173305
 H         -2.7737314264       -1.8893881838        1.9094904067
 H         -1.6095826138       -0.3554768045        3.4778389497
 H         -0.0074551357        1.3070721598        2.6139571389
 H          0.9802414047        2.4296773060        0.8808310895
 C          0.1191773345        2.6039468798       -1.0654557398
 C         -0.9392940912        3.6090449541       -0.7267310895
 C          0.4301375472        4.0680458614       -1.1264655494
 H          0.5609850949        4.5260536794       -2.0955240920
 H          1.0767830313        4.4743909592       -0.3625651894
 H         -1.7508334594        3.7539503083       -1.4227385943
 H         -1.2243989720        3.7029301433        0.3099429174
 H          0.0335226203        2.0785645411       -2.0075048612
