  62
        -98.93655944
 C         -2.5543421690       -0.1936349910        0.5699057205
 C         -2.1071160393        0.3680690995       -0.6493421594
 C         -1.7465495101        1.8015595897       -0.6352599791
 C         -1.8654610905        2.4933950694        0.5118076611
 C         -1.5521815313        3.9423956495        0.7842676114
 C         -0.0480500914        4.2184658603        0.8977712515
 C          0.7898697989        3.6535753210       -0.2452302286
 H          1.8347250588        3.9056858016       -0.0422168285
 H          0.7220833495        2.5637867310       -0.2430334788
 C          0.4391868186        4.1891913311       -1.6325625585
 H          0.4767027480        5.2807757612       -1.6164613182
 H          1.2182434288        3.8379295917       -2.3132300386
 C         -0.9122042011        3.7479613905       -2.2055461886
 H         -1.7266109415        4.3688015600       -1.8396160185
 H         -0.8708329012        3.8984228808       -3.2880420486
 C         -1.2431909303        2.2771936403       -1.9754838089
 H         -2.0054647501        1.9666755900       -2.6998173690
 H         -0.3627351100        1.6623843108       -2.1984625291
 H          0.3127416788        3.7740557803        1.8292806714
 H          0.0961702280        5.2993857504        0.9587323518
 H         -1.9985792316        4.5760465094        0.0236044616
 H         -2.0227254514        4.1845997990        1.7402782415
 O         -2.3083041702        1.9098375689        1.6656331810
 C         -2.6152871494        0.5665266887        1.7374259807
 O         -2.9354713692        0.1716513883        2.8787824006
 H         -0.2561061584       -1.2844821698        1.1069627503
 C         -0.4113238579       -2.0732949998        0.3838985801
 C         -1.7073583477       -2.4434809804        0.0459782500
 C         -1.8855505272       -3.4640284703       -0.8775675902
 C         -0.7883431468       -4.0706716796       -1.4655826603
 C          0.4975390230       -3.6613859089       -1.1658064002
 C          0.6855226424       -2.6469238690       -0.2332451800
 N          1.9762302221       -2.1949429984        0.1063403501
 S          2.1598381912       -0.5298166983        0.3458496505
 O          1.7386598610       -0.2013629889        1.6864846206
 O          1.5334988908        0.2078927215       -0.7258179394
 C          3.9349940811       -0.3923698873        0.2416079605
 C          4.5191060608        0.2172550232       -0.8516567993
 C          5.9021677408        0.2906558040       -0.9183126093
 C          6.6721761811       -0.2470574458        0.1016188906
 C          6.0709538714       -0.8566309964        1.1932919705
 C          4.6894011114       -0.9309640672        1.2673083804
 H          4.1767767217       -1.3855015676        2.0989768803
 H          6.6725167216       -1.2722718962        1.9854545904
 H          7.7477338610       -0.1890945252        0.0469849106
 H          6.3717430105        0.7660801944       -1.7642468892
 H          3.8787059906        0.6227213230       -1.6184530692
 H          2.6813631223       -2.5400834979       -0.5320621700
 H          1.3485670432       -4.1141037183       -1.6519907403
 H         -0.9394547764       -4.8581788195       -2.1884623705
 H         -2.8806655070       -3.7650104108       -1.1612228003
 C         -2.8308826182       -1.6822957912        0.7080066002
 H         -2.7729204481       -1.8770085514        1.7929134701
 C         -4.2173512879       -2.1212520018        0.2627232500
 C         -5.3583136084       -1.1498200525        0.2234416802
 C         -4.8027262881       -1.7049009319       -1.0518095299
 H         -5.3974389477       -2.4229278121       -1.5974609200
 H         -4.2044556285       -1.0623146614       -1.6776334197
 H         -6.3288766583       -1.4867935231        0.5556447001
 H         -5.1449699290       -0.1195841824        0.4704550305
 H         -4.4557566974       -3.1225034120        0.6084349798
 O         -2.0094339789       -0.2845380702       -1.7213995895
