  62
        -98.93961167
 C          2.1181689323        0.8527119923        0.7308862311
 C          2.8133502147       -0.3064320982        1.1634977807
 C          4.2357989556       -0.3819469268        0.8160677034
 C          4.8101104287        0.6317000191        0.1436771756
 C          6.2569217432        0.7220310266       -0.2594320626
 C          6.5881340190       -0.0084201179       -1.5679574780
 C          6.5899460549       -1.5349661213       -1.4782538736
 H          7.0477761667       -1.9093476105       -2.3960097215
 H          7.2230413770       -1.8485727742       -0.6476457362
 C          5.1964649294       -2.1622390894       -1.3311543667
 H          5.1016944094       -3.0054311049       -2.0190859402
 H          4.4349424577       -1.4318931396       -1.6145253195
 C          4.8806404011       -2.6848409977        0.0704374432
 H          3.8577923089       -3.0707706989        0.0699605877
 H          5.5521241182       -3.5113123675        0.3139464259
 C          4.9866526165       -1.6276413726        1.1773036995
 H          4.5360815701       -2.0354199602        2.0856398909
 H          6.0326994710       -1.3969584797        1.3786351180
 H          7.5834602501        0.3169308971       -1.8791870480
 H          5.8789852406        0.3103041901       -2.3352468467
 H          6.4764809331        1.7835099977       -0.3927024737
 H          6.8850493979        0.3352339594        0.5435748266
 O          4.1170042022        1.7341538951       -0.2393491847
 C          2.7555020588        1.8662021894        0.0133806511
 O          2.2665162699        2.9152279177       -0.4436560483
 H         -1.2901001777       -0.9617006765        1.3045790922
 C         -1.1541736231       -0.6287869254        0.2868086382
 C         -0.2035990100        0.3357070921       -0.0130090168
 C         -0.0497366770        0.7366639156       -1.3375851409
 C         -0.8250235358        0.1753348515       -2.3347816952
 C         -1.7795332275       -0.7804669965       -2.0303505237
 C         -1.9461301097       -1.1823739857       -0.7113014172
 N         -2.9141615111       -2.1462775591       -0.3646042565
 S         -4.1301567754       -1.6865136092        0.6912572386
 O         -3.5601139002       -1.3151960845        1.9596553184
 O         -5.0645903890       -2.7886991092        0.6958488732
 C         -4.8717226302       -0.2655858563       -0.0925033334
 C         -4.2885373751        0.9732447980        0.0837088614
 C         -4.8198610989        2.0653442284       -0.5836621474
 C         -5.9191212619        1.8999487401       -1.4123879157
 C         -6.4946623345        0.6491261994       -1.5783304221
 C         -5.9643549564       -0.4473734279       -0.9176822028
 H         -6.3825458858       -1.4364352472       -1.0134003446
 H         -7.3514290118        0.5252320032       -2.2209635186
 H         -6.3299574520        2.7523779210       -1.9299341553
 H         -4.3705919624        3.0368817214       -0.4528777317
 H         -3.4386573296        1.0653882489        0.7393575773
 H         -3.3229592436       -2.6142640652       -1.1617341275
 H         -2.3866785516       -1.2168097137       -2.8091753226
 H         -0.6915916020        0.4912284702       -3.3582368902
 H          0.6801857028        1.4969043135       -1.5708980175
 C          0.6440652452        0.9289526548        1.0847064306
 H          0.5358129725        0.2764508063        1.9659119797
 C          0.1887421423        2.3263732463        1.4880349454
 C         -0.9062839789        3.0627507882        0.7802246640
 C         -1.1469055042        2.5025906603        2.1480394059
 H         -1.2266503206        3.1830729167        2.9823456129
 H         -1.7707606533        1.6247035405        2.2419507463
 H         -0.7983565381        4.1310169832        0.6711890954
 H         -1.3805627867        2.5843927747       -0.0625901976
 H          1.0032861776        2.9302883909        1.8720284904
 O          2.2675391248       -1.2322813827        1.8225542277
