  62
        -98.92844909
 C         -1.9760843510       -1.0092570026        0.7483009653
 C         -2.7441781536       -0.9073818188       -0.4356887622
 C         -4.0714642938       -0.2615390500       -0.3153657028
 C         -4.4701704836        0.1998932040        0.8830959220
 C         -5.7516649477        0.9060862087        1.2392030305
 C         -5.7707338380        2.3724307996        0.7799681456
 C         -5.2578819598        2.6065795053       -0.6383643761
 H         -5.2278077421        3.6865215622       -0.8062521501
 H         -4.2324684106        2.2397956833       -0.7141711022
 C         -6.1041868489        1.9845461040       -1.7465977010
 H         -5.6818854882        2.3144606782       -2.6992432361
 H         -7.1220435485        2.3756870937       -1.6822595702
 C         -6.1691277017        0.4555522886       -1.7617041538
 H         -6.5784732092        0.1581059459       -2.7315731479
 H         -6.8593859627        0.0832342034       -1.0094545241
 C         -4.8182621038       -0.2399371849       -1.6274185499
 H         -4.9381299626       -1.2917994034       -1.9132531878
 H         -4.1237729390        0.1799942031       -2.3640253719
 H         -6.7917861584        2.7478599110        0.8673942723
 H         -5.1400972213        2.9488825532        1.4614662943
 H         -6.6018222040        0.3638205270        0.8362123756
 H         -5.8287216513        0.8826375135        2.3286252889
 O         -3.6807723350        0.1070074787        1.9925048850
 C         -2.4351127145       -0.4805837273        1.9569777873
 O         -1.8352598348       -0.4756602743        3.0534435326
 O         -2.3683472653       -1.3252348365       -1.5585378743
 C         -0.5949247291       -1.6555428684        0.7919191687
 C          0.3560324167       -0.8782462203       -0.0848425550
 C          0.5731252188       -1.0961551455       -1.4402254069
 C          1.4422691244       -0.2876327587       -2.1541240592
 C          2.1136958563        0.7551380289       -1.5443017364
 C          1.9011327672        0.9896573770       -0.1919408675
 C          1.0375489136        0.1732194434        0.5222316666
 H          0.8706596787        0.3690844741        1.5741666900
 N          2.5835313588        2.0419585456        0.4443433727
 S          4.2323558758        2.1562691510        0.1729202617
 O          4.7691330735        2.8014865256        1.3504478068
 O          4.4711011252        2.8315506649       -1.0782460754
 C          4.7944043347        0.4661269754        0.0657568884
 C          5.3330576034       -0.0100457525       -1.1118871743
 C          5.7135107691       -1.3406586975       -1.1846843409
 C          5.5438443567       -2.1685624675       -0.0861437442
 C          5.0052178243       -1.6739578521        1.0920641596
 C          4.6257833537       -0.3441954971        1.1712912709
 H          4.2086590945        0.0724648404        2.0742622453
 H          4.8740340527       -2.3193521957        1.9457380115
 H          5.8325867816       -3.2059731920       -0.1464927958
 H          6.1348226813       -1.7276236851       -2.0983997927
 H          5.4428870412        0.6668926317       -1.9433050258
 H          2.3678050991        2.1342395447        1.4260675730
 H          2.7843702679        1.3976202989       -2.0914973803
 H          1.5923632078       -0.4721928211       -3.2069412057
 H          0.0365892439       -1.8709540318       -1.9568001203
 H         -0.2606540085       -1.4837291773        1.8265732117
 C         -0.6618685107       -3.1721508129        0.6572721415
 C         -0.9971745340       -3.9425082242       -0.5829627676
 C          0.3924535663       -3.9919057927       -0.0245148142
 H          0.7175706123       -4.9033491581        0.4546033032
 H          1.1738830247       -3.4669956776       -0.5510629327
 H         -1.6260266454       -4.8141568762       -0.4647567539
 H         -1.1963339990       -3.3983603858       -1.4903115971
 H         -1.0695378158       -3.5930841208        1.5738748637
