  62
        -98.93774610
 C         -1.6727868630       -1.4169604601        0.1370867503
 C         -1.8822520837       -0.3085639042       -0.7150441613
 C         -3.2283004457        0.3042847397       -0.7012312678
 C         -4.1667432405       -0.1938214415        0.1238737797
 C         -5.5741358901        0.2928759704        0.3451449426
 C         -5.6335294220        1.5712739249        1.1966605716
 C         -4.6096227998        2.6403189861        0.8242688368
 H         -4.6845466425        3.4433258056        1.5624299921
 H         -3.6057475434        2.2193416226        0.9070793483
 C         -4.7900728410        3.2594763743       -0.5597673517
 H         -5.7836910411        3.7084873771       -0.6244222190
 H         -4.0564877847        4.0646695591       -0.6528676003
 C         -4.6060275621        2.3102201622       -1.7457992096
 H         -5.4837538125        1.6860678426       -1.8896681727
 H         -4.5145120233        2.9275420478       -2.6443747241
 C         -3.3497105753        1.4478717674       -1.6804514841
 H         -3.1795097149        1.0060093432       -2.6696525081
 H         -2.4829843900        2.0946715184       -1.5019784822
 H         -5.4579319929        1.2918814859        2.2384761289
 H         -6.6398693574        1.9872638445        1.1245839833
 H         -6.0740960589        0.4388239530       -0.6077860361
 H         -6.0998299911       -0.5029545941        0.8775247814
 O         -3.9163997322       -1.2529048886        0.9450667478
 C         -2.6947228094       -1.8909042360        0.9660182145
 O         -2.6353320798       -2.8592763792        1.7504701106
 H          0.4280692741        0.3983241568        0.1519463608
 C          0.9671494154       -0.1699603967        0.8947992816
 C          0.6731234803       -1.5137781943        1.0708405460
 C          1.4001444142       -2.2302678717        2.0144981382
 C          2.3969051257       -1.6178219151        2.7546519804
 C          2.6864244667       -0.2763994568        2.5746920865
 C          1.9567028828        0.4484279060        1.6436488965
 N          2.2599554634        1.8164879265        1.4312470856
 S          3.6952224237        2.0472781148        0.5912230397
 O          4.7935094669        1.6715207331        1.4445022607
 O          3.6765658878        3.4200179667        0.1387355437
 C          3.5736531841        0.9252300305       -0.7888693056
 C          2.8541738216        1.3209010015       -1.8983779656
 C          2.6659608754        0.4183591395       -2.9317984567
 C          3.1904913765       -0.8609151360       -2.8320046932
 C          3.9090703242       -1.2435341680       -1.7099245895
 C          4.1008080409       -0.3449367599       -0.6734911624
 H          4.6485072591       -0.6030741874        0.2180267150
 H          4.3135290980       -2.2399427300       -1.6339609813
 H          3.0344673246       -1.5637587148       -3.6356012795
 H          2.0995606040        0.7105336876       -3.8014677629
 H          2.4601584567        2.3240885845       -1.9383760663
 H          1.5228230686        2.2937039806        0.9292466612
 H          3.4704904213        0.2151860252        3.1273789621
 H          2.9542690724       -2.1900875702        3.4804212855
 H          1.1767129294       -3.2752753946        2.1707379779
 C         -0.3672791860       -2.1919656851        0.2124771892
 H         -0.6228802817       -3.1483728507        0.6879864460
 C          0.2267712568       -2.4792696925       -1.1554669804
 C          1.0830429958       -3.6934535158       -1.3403263816
 C         -0.2868544595       -3.6427249950       -1.9462089361
 H         -0.3787027413       -3.5369832007       -3.0165327309
 H         -1.0663174620       -4.2439604168       -1.5002218216
 H          1.9362487503       -3.6245371979       -1.9960765799
 H          1.2336198565       -4.3367548430       -0.4869655975
 H          0.4945668587       -1.5823195214       -1.6986911699
 O         -0.9977672908        0.1889747499       -1.4643706269
