  62
        -98.94266613
 C         -1.8144240094       -0.9782359606       -0.2152878497
 C         -3.1894826492       -1.3177038112       -0.1403304098
 C         -4.1413670597       -0.2588851315       -0.5015818995
 C         -3.6731270702        0.9527642588       -0.8517423792
 C         -4.5283381907        2.1382923285       -1.1910167989
 C         -4.8310782910        2.9814875980        0.0556520214
 C         -5.3358917707        2.1656346075        1.2457390211
 H         -4.5361164204        1.5064551677        1.5910234910
 H         -5.5457946310        2.8672984671        2.0559101613
 C         -6.5901540404        1.3294121770        0.9560658009
 H         -7.0831185705        1.6994883171        0.0563530310
 H         -7.2922293204        1.4517230865        1.7835221509
 C         -6.3312407297       -0.1712181528        0.8100914205
 H         -5.7567763796       -0.5297072828        1.6680206404
 H         -7.2955957095       -0.6861141133        0.8249917603
 C         -5.6043648695       -0.6015276622       -0.4702460397
 H         -5.6581172991       -1.6926280422       -0.5307509600
 H         -6.1152018697       -0.1842985521       -1.3407212795
 H         -5.5728425314        3.7365776678       -0.2108131684
 H         -3.9154787713        3.4953867283        0.3569954815
 H         -3.9907754009        2.7543657389       -1.9138479687
 H         -5.4561491805        1.7922988382       -1.6426611090
 O         -2.3505547303        1.2502330093       -0.8871140391
 C         -1.3865692599        0.3021062796       -0.5666715794
 O         -0.2208170701        0.7314574702       -0.6321066192
 H          1.9436754810       -1.9187324290       -0.2228322099
 C          1.6131781209       -1.5231997695        0.7222576902
 C          0.2667323108       -1.4990883901        1.0490409802
 C         -0.1122272294       -0.9578999506        2.2756971403
 C          0.8303904204       -0.4426681305        3.1428750205
 C          2.1735965904       -0.4606082498        2.8087885105
 C          2.5651209406       -1.0053003693        1.5921460503
 N          3.9277632107       -1.0825505086        1.2583933603
 S          4.5368684205       -0.6313591079       -0.2308479596
 O          3.8730809108       -1.3589623379       -1.2808833498
 O          5.9630889006       -0.8456080274       -0.1117623996
 C          4.2225291697        1.1196430120       -0.3676571191
 C          2.9321041796        1.5668068115       -0.5680429590
 C          2.7057072190        2.9335452114       -0.6314471786
 C          3.7602815386        3.8227827218       -0.4972398183
 C          5.0504944288        3.3554670723       -0.2952268384
 C          5.2848769694        1.9922584124       -0.2251500288
 H          6.2701851696        1.5829885627       -0.0705564789
 H          5.8706004585        4.0476276826       -0.1911244082
 H          3.5748395982        4.8841852617       -0.5504680680
 H          1.6963431888        3.2817483410       -0.7834976785
 H          2.1145392299        0.8709407112       -0.6682595492
 H          4.5467201005       -0.7555421186        1.9865993004
 H          2.9126620202       -0.0600627797        3.4860898406
 H          0.5194898102       -0.0212734109        4.0870519306
 H         -1.1621567294       -0.9420619011        2.5362624103
 C         -0.8036134789       -2.0524319003        0.1413954200
 H         -1.3830188886       -2.7936541107        0.7181997598
 C         -0.2373249586       -2.7903529097       -1.0626611102
 C         -1.0191454785       -2.9337727397       -2.3330898003
 C          0.2084142211       -2.0759312192       -2.3017299500
 H          1.1030876813       -2.4217497087       -2.7992944001
 H          0.0880198807       -1.0043061292       -2.3311434997
 H         -1.9813258887       -2.4455003301       -2.3895312901
 H         -0.9772943381       -3.8775126595       -2.8558511905
 H          0.3511158418       -3.6541970396       -0.7669208305
 O         -3.6010235287       -2.4537330615        0.2168599098
