  62
        -98.94566191
 C         -1.4401625873        1.2705040509       -0.1034514471
 C         -1.5771312636       -0.0290767155        0.4453058843
 C         -2.7249941667       -0.8092759787       -0.0393914429
 C         -3.5513352314       -0.2957756388       -0.9666381812
 C         -4.7456293443       -0.9819413146       -1.5724740389
 C         -6.0199728651       -0.8844635124       -0.7223022059
 C         -6.0283328767       -1.7446975861        0.5421602237
 H         -7.0536438081       -1.7515458655        0.9174595944
 H         -5.7699664775       -2.7717837252        0.2822860171
 C         -5.0984029687       -1.2441963818        1.6562718650
 H         -4.8256051565       -0.2043840113        1.4625369050
 H         -5.6298890493       -1.2642312017        2.6102933554
 C         -3.8204714840       -2.0648335589        1.8321334263
 H         -4.0750827166       -3.0765274732        2.1558688741
 H         -3.2191861081       -1.6003998007        2.6175378916
 C         -2.9566798910       -2.1598625048        0.5679881997
 H         -1.9816606216       -2.5731141639        0.8398310844
 H         -3.4214905489       -2.8273536824       -0.1577932183
 H         -6.1792590517        0.1620204533       -0.4522452936
 H         -6.8558512794       -1.1959394272       -1.3530156043
 H         -4.9318566555       -0.4915978059       -2.5306018093
 H         -4.5092556125       -2.0299537429       -1.7603336290
 O         -3.3759515710        0.9479136042       -1.4877846512
 C         -2.3332139113        1.7539420643       -1.0644509740
 O         -2.3071822883        2.8773891081       -1.6085318819
 H          0.7211421859       -0.1055920048       -0.7044453188
 C          1.3126966099        0.7551394877       -0.9697425651
 C          0.9131542955        2.0241096075       -0.5804755713
 C          1.6869138495        3.1141888578       -0.9651069894
 C          2.8297734369        2.9348969770       -1.7219738092
 C          3.2302171129        1.6660803013       -2.1005101962
 C          2.4628990389        0.5694005464       -1.7251263814
 N          2.8316815492       -0.7253653229       -2.1151620141
 S          2.6160548799       -2.0209841385       -1.0768101694
 O          3.5048633383       -3.0367837671       -1.6035022378
 O          1.2239450909       -2.3826036371       -1.0084965116
 C          3.2380430971       -1.4459407126        0.4921431995
 C          2.3817804187       -1.1118366600        1.5201305806
 C          2.9216696998       -0.6201037639        2.6998306631
 C          4.2926729792       -0.4699945443        2.8298992875
 C          5.1393882876       -0.8163840338        1.7872512066
 C          4.6087401223       -1.3068661149        0.6065180927
 H          5.2321387328       -1.6010585190       -0.2223081162
 H          6.2064778222       -0.7034065134        1.8911801359
 H          4.7031083398       -0.0836089801        3.7495463458
 H          2.2596815398       -0.3545019183        3.5090408097
 H          1.3162880590       -1.2269695984        1.3939471141
 H          3.7149074114       -0.7849373936       -2.6001927562
 H          4.1204334376        1.5230267937       -2.6935355040
 H          3.4167459088        3.7900598729       -2.0199140665
 H          1.3770265325        4.1085427698       -0.6817409774
 C         -0.3232549651        2.2311204870        0.2654310397
 H         -0.7094306241        3.2357651035        0.0413694989
 C          0.0590873329        2.1831938878        1.7335012187
 C          0.5811076603        3.4149298969        2.4067186599
 C         -0.7870479844        2.9011610656        2.7395514762
 H         -0.9518746185        2.4350653439        3.6991693064
 H         -1.6419063884        3.4499372358        2.3707159099
 H          1.3645722950        3.3052473029        3.1403124366
 H          0.6482659285        4.3206147337        1.8238313272
 H          0.4796616731        1.2317407960        2.0290773846
 O         -0.8010978680       -0.5362204536        1.2965466614
