  62
        -98.94496446
 C          1.8608584327        0.3956827920        0.0428464568
 C          2.9305589483        0.5089965991        0.9716319806
 C          4.0863776748       -0.3639681097        0.7476091648
 C          4.0751663550       -1.2302549897       -0.2811708612
 C          5.1636400950       -2.2084198994       -0.6301508826
 C          6.2991609549       -1.6063610821       -1.4692154175
 C          7.2338788027       -0.6596117300       -0.7151817014
 H          7.5928501281       -1.1502915229        0.1900800199
 H          8.1000845955       -0.4868881205       -1.3570302798
 C          6.6080904397        0.6952915945       -0.3556941251
 H          5.7119363205        0.8543123999       -0.9598699097
 H          7.3075711413        1.4966069761       -0.6042049531
 C          6.2437718737        0.8539140151        1.1205233617
 H          5.7761751344        1.8325716276        1.2548087819
 H          7.1518059767        0.8287316241        1.7270167971
 C          5.2736950538       -0.2106986972        1.6493933216
 H          5.7883156374       -1.1643623396        1.7656186381
 H          4.9089927482        0.1121347224        2.6275339220
 H          6.8935779695       -2.4373725319       -1.8560658861
 H          5.8630456984       -1.0840713815       -2.3239376547
 H          5.5740605879       -2.6403768025        0.2831283588
 H          4.6919212257       -3.0049825119       -1.2098038910
 O          3.0248351613       -1.3279263159       -1.1354595264
 C          1.9053937788       -0.5163732200       -1.0113500745
 O          1.0500665485       -0.7248953329       -1.8966922547
 O          2.9177879470        1.3101316456        1.9431993164
 C          0.6747382915        1.3197605556        0.2632456151
 C         -0.4762533189        0.6025639368        0.9269954053
 C         -0.9161206754        0.9755044163        2.1914113433
 C         -1.9922171304        0.3358337600        2.7826486177
 C         -2.6516328115       -0.6863173917        2.1244417406
 C         -2.2142434429       -1.0697489586        0.8631993145
 C         -1.1402342736       -0.4239213645        0.2700134661
 H         -0.8025723694       -0.7320907757       -0.7082589993
 N         -2.8935564908       -2.0983811678        0.1762879123
 S         -4.5229004953       -1.8048743347       -0.0953003289
 O         -5.2627462977       -2.0906774769        1.1084709045
 O         -4.8767034537       -2.5891795848       -1.2570690928
 C         -4.5994122228       -0.0599473372       -0.4573413573
 C         -5.0963823820        0.8180212076        0.4840194573
 C         -5.0702511686        2.1763003369        0.2112747516
 C         -4.5459628320        2.6302232932       -0.9886984090
 C         -4.0527745776        1.7347083379       -1.9252376228
 C         -4.0742896937        0.3760610641       -1.6575177067
 H         -3.7004291899       -0.3482902845       -2.3637973066
 H         -3.6473807270        2.0878629824       -2.8600702062
 H         -4.5219190115        3.6883343643       -1.1967889099
 H         -5.4536791279        2.8755017172        0.9366040539
 H         -5.4944328569        0.4225430685        1.4038776500
 H         -2.4389494793       -2.3520442153       -0.6898538889
 H         -3.4960611169       -1.1933467429        2.5628031731
 H         -2.3215417418        0.6366835282        3.7653693660
 H         -0.4005676565        1.7665676376        2.7158969954
 H          1.0383603642        2.0833935579        0.9636281701
 C          0.2051987714        2.0128796300       -1.0019551284
 C         -0.6138203391        3.2614987031       -0.8818599615
 C          0.7982577515        3.3358246662       -1.3785868322
 H          0.9708614280        3.5431934542       -2.4240805884
 H          1.5497807280        3.7516786942       -0.7232407127
 H         -1.4162767507        3.4184729430       -1.5851997937
 H         -0.8216180307        3.6278919591        0.1117099125
 H         -0.0321826270        1.3282161678       -1.8054230824
