  62
        -98.94482428
 C         -1.6458631349       -1.0713742421        0.4716573312
 C         -1.8763340489        0.1146792595        1.2122746905
 C         -2.5491782239        1.2079443023        0.5005909000
 C         -2.8530833950        1.0542336329       -0.8005860598
 C         -3.4881150702        2.1072813554       -1.6618276603
 C         -2.4266782763        2.9660487598       -2.3630806512
 C         -1.3338497535        3.4839523952       -1.4278477419
 H         -0.7479838675        2.6311532426       -1.0742743115
 H         -0.6586698107        4.0979796315       -2.0293255925
 C         -1.8493710791        4.3042295284       -0.2363451323
 H         -1.2208986248        5.1909889955       -0.1279571630
 H         -2.8636409675        4.6493938332       -0.4413823322
 C         -1.8253675122        3.5742012392        1.1077860082
 H         -2.0047969684        4.3103100906        1.8959520178
 H         -0.8347390143        3.1459340545        1.2750932482
 C         -2.8590330176        2.4552060143        1.2798623493
 H         -2.8554279587        2.1596862250        2.3331048594
 H         -3.8539661259        2.8288692589        1.0295577393
 H         -2.9260542223        3.8076486119       -2.8475603816
 H         -1.9458061894        2.3617165570       -3.1362354310
 H         -4.1292552270        2.7352779189       -1.0457301005
 H         -4.0984409528        1.6113600279       -2.4186740198
 O         -2.5742991307       -0.0770992189       -1.4936486192
 C         -1.9446011057       -1.1581399315       -0.8894978787
 O         -1.7307173406       -2.1094620231       -1.6641392681
 O         -1.5336235279        0.2530464086        2.4175373303
 C         -0.9336444402       -2.2125214451        1.1788774117
 C          0.2318433874       -2.6617098913        0.3355601916
 C          0.4159597809       -3.9593357425       -0.1201120176
 C          1.4866056092       -4.2615916782       -0.9442542277
 C          2.3777866238       -3.2822894227       -1.3405401887
 C          2.2059712503       -1.9805313616       -0.8808102794
 C          1.1590090519       -1.6906017260       -0.0241007293
 H          1.0206184170       -0.6779778851        0.3280468701
 N          3.0980335751       -0.9637210062       -1.2479474304
 S          2.6304101328        0.6383162761       -1.2546080513
 O          1.2643973436        0.8241672324       -1.6863541510
 O          3.6384395758        1.2977895807       -2.0600159820
 C          2.8252070658        1.1539773362        0.4387091583
 C          1.9995938708        2.1473510506        0.9249009479
 C          2.1620332833        2.5815396106        2.2306988876
 C          3.1485965108        2.0180718564        3.0245566277
 C          3.9749056159        1.0253647820        2.5204608881
 C          3.8172191134        0.5882368520        1.2148588184
 H          4.4391174295       -0.1841989313        0.7945322387
 H          4.7403804140        0.5886238587        3.1415147281
 H          3.2710083428        2.3546091264        4.0419061574
 H          1.5167229772        3.3517417040        2.6225488873
 H          1.2399687926        2.5521232838        0.2740569579
 H          3.7390407538       -1.1892126497       -1.9935525304
 H          3.1934959625       -3.5148467671       -2.0079339688
 H          1.6160433042       -5.2721014290       -1.3013465771
 H         -0.2939128627       -4.7266608589        0.1409670131
 H         -0.5303395877       -1.7497929164        2.0957778013
 C         -1.8394599256       -3.3469085004        1.6313923427
 C         -3.2926558243       -3.1085842732        1.9104416330
 C         -2.8827414288       -3.9506653459        0.7414838834
 H         -3.0477450339       -5.0168707251        0.7978436942
 H         -2.9883153771       -3.5439997661       -0.2517211168
 H         -3.7380894264       -3.5937934605        2.7659149134
 H         -3.6832738096       -2.1203023314        1.7147563125
 H         -1.3283505886       -4.0251615124        2.3078369530
