  62
        -98.94398468
 C         -1.6835999661       -1.3212248335        0.3173230768
 C         -1.3654103081       -0.2688236621       -0.5691265336
 C         -1.9420620935        1.0503144407       -0.2642446024
 C         -2.7025141394        1.1990903461        0.8360742913
 C         -3.3541991033        2.4279474389        1.4352148731
 C         -3.5309749160        3.7009471371        0.6112323246
 C         -4.4985091070        3.5753814213       -0.5645620542
 H         -5.5085604979        3.4368575562       -0.1709753947
 H         -4.4829249028        4.5163989528       -1.1187965240
 C         -4.2144600494        2.4259894401       -1.5280126979
 H         -4.9621990032        2.4656757259       -2.3246361113
 H         -4.3453163161        1.4734974303       -1.0104464911
 C         -2.8344181790        2.4494083422       -2.1825813724
 H         -2.6673861015        3.4201435085       -2.6528321822
 H         -2.8331361135        1.6907020508       -2.9693228058
 C         -1.6488436425        2.1458907692       -1.2479693521
 H         -0.8159064503        1.7913987980       -1.8619690958
 H         -1.3067491284        3.0385399300       -0.7283511226
 H         -2.5652231247        4.0651258701        0.2730118725
 H         -3.9331482664        4.4564141666        1.2920156051
 H         -2.7577994755        2.6707225184        2.3224565924
 H         -4.3323072936        2.0983557965        1.8006196562
 O         -2.9692500637        0.1547415343        1.6752625514
 C         -2.4656172383       -1.1134096572        1.4495178984
 O         -2.7828514987       -1.9574319896        2.3141873580
 O         -0.6170551256       -0.4198390311       -1.5715299229
 C         -1.0936501843       -2.7011125838        0.0912431757
 C          0.4113857197       -2.6023109491        0.0149462945
 C          1.1805303858       -3.3172542684       -0.8949008102
 C          2.5558226758       -3.1616141598       -0.9265798645
 C          3.1891270667       -2.2775144152       -0.0722258309
 C          2.4290367410       -1.5667894940        0.8491693373
 C          1.0584899732       -1.7560676329        0.9064435008
 H          0.4833412072       -1.1975508994        1.6309857654
 N          3.0176347124       -0.6353859323        1.7312644108
 S          2.5576657589        0.9681294884        1.5563675540
 O          3.3600145706        1.6932445270        2.5190106473
 O          1.1295311760        1.0928915931        1.6932546621
 C          3.0878631207        1.3983198700       -0.0923103975
 C          4.2906275606        2.0619720317       -0.2453066114
 C          4.7474850387        2.3402721473       -1.5229970433
 C          4.0019914852        1.9420557649       -2.6227206388
 C          2.8004921908        1.2726117122       -2.4514558113
 C          2.3340054496        0.9935200730       -1.1754914883
 H          1.3993070294        0.4760374696       -1.0235289944
 H          2.2144472890        0.9578678455       -3.3001320618
 H          4.3577431157        2.1545781614       -3.6185652411
 H          5.6811772692        2.8624236661       -1.6568382196
 H          4.8332986492        2.3535519990        0.6394887585
 H          4.0275658685       -0.6839031805        1.7559154069
 H          4.2584686758       -2.1352638716       -0.1154293060
 H          3.1399702292       -3.7224036945       -1.6400278731
 H          0.7013667733       -3.9921459819       -1.5851648988
 H         -1.3571101705       -3.2952060367        0.9790924122
 C         -1.7146740472       -3.3448784730       -1.1319003020
 C         -1.8816894410       -4.8323123998       -1.2048973239
 C         -3.0790201018       -3.9521822801       -1.0128898532
 H         -3.7711416565       -3.8319821737       -1.8327415733
 H         -3.5475309927       -3.9255829923       -0.0394539729
 H         -1.7558380528       -5.3195568596       -2.1600291097
 H         -1.5443788442       -5.4161650193       -0.3618034192
 H         -1.4839746689       -2.8076806857       -2.0446656510
