  62
        -98.93949730
 C         -2.6397522519       -1.2141186294        0.2520335902
 C         -2.5191129484       -0.1719975941       -0.7007536350
 C         -3.7064863644        0.6828500543       -0.8674166784
 C         -4.8095418280        0.4395607803       -0.1382718851
 C         -6.0622451391        1.2650666546       -0.1712269522
 C         -6.0191616060        2.3797942858        0.8834883690
 C         -4.7256965854        3.1946796626        0.8698300490
 H         -4.8222939816        3.9694823310        1.6335170621
 H         -3.8948063544        2.5513411544        1.1688378808
 C         -4.3994344697        3.8463563499       -0.4812106276
 H         -5.2959265281        3.8818175452       -1.1013378806
 H         -4.0859389984        4.8775256260       -0.3054567560
 C         -3.2719497047        3.1648432649       -1.2589228478
 H         -2.4002457402        3.0420692005       -0.6109577997
 H         -2.9788403445        3.8243893037       -2.0800461490
 C         -3.6131807997        1.7995068171       -1.8688733516
 H         -2.7990609439        1.5269655305       -2.5468891350
 H         -4.5344923845        1.8749564623       -2.4501041560
 H         -6.1270559363        1.9257563322        1.8713284479
 H         -6.8708528373        3.0425480833        0.7197909070
 H         -6.1830806505        1.6938604100       -1.1640935747
 H         -6.9107741769        0.6115266009        0.0384098442
 O         -4.8889763013       -0.5712101244        0.7648334016
 C         -3.8065999311       -1.4027161152        0.9979858060
 O         -4.0028286673       -2.2592049559        1.8833474199
 O         -1.4870467766        0.0453840124       -1.3853796880
 C         -1.4857630692       -2.1521977292        0.5654646284
 C         -0.2140255342       -1.3594565613        0.7402492432
 C         -0.1070948854       -0.5037201995        1.8332129511
 C          1.0337239499        0.2492292010        2.0335107392
 C          2.0934745885        0.1670183070        1.1471945852
 C          1.9980443780       -0.6834685068        0.0549780530
 C          0.8527188587       -1.4456338163       -0.1391438591
 H          0.7841492306       -2.0859067249       -1.0049975698
 N          3.0624161365       -0.7563167699       -0.8577581753
 S          4.6197013295       -0.9604559485       -0.2752516558
 O          5.3509479475       -1.5825502888       -1.3577961919
 O          4.6237086809       -1.6630026583        0.9872897537
 C          5.2227344235        0.7001013870       -0.0521678450
 C          5.1774928961        1.5604132892       -1.1316411437
 C          5.6574298157        2.8512816318       -0.9790231640
 C          6.1746124075        3.2570286037        0.2423614404
 C          6.2154796551        2.3805876884        1.3157977480
 C          5.7360327121        1.0880481340        1.1698271290
 H          5.7437519277        0.3737975520        1.9778541565
 H          6.6178687656        2.6979835478        2.2644274750
 H          6.5478845732        4.2623501792        0.3580510551
 H          5.6264956957        3.5359326797       -1.8113656143
 H          4.7707620621        1.2066346019       -2.0643408229
 H          2.8827850024       -1.3504562999       -1.6535872313
 H          2.9852216436        0.7545647782        1.2932960051
 H          1.0989192217        0.9097274631        2.8850371064
 H         -0.9383000210       -0.4337407605        2.5225072936
 H         -1.7393068914       -2.5947491646        1.5430037766
 C         -1.3413959596       -3.3151349894       -0.4049362057
 C         -2.5492656380       -3.9388771176       -1.0362624690
 C         -1.5726068287       -3.1774603032       -1.8786489575
 H         -0.9351274158       -3.7349310531       -2.5500694497
 H         -1.8593414153       -2.2081179349       -2.2539107825
 H         -2.5832816615       -5.0140681289       -1.1281970070
 H         -3.5088455071       -3.4880819005       -0.8285822702
 H         -0.5545026690       -3.9980988575       -0.0971010256
