  62
        -98.93652171
 C          2.1116593157        1.3139183891       -0.1104961200
 C          2.9539782691        0.7395745783        0.8747569298
 C          3.7457538679       -0.4399696418        0.4841653794
 C          3.6070352665       -0.9306116127       -0.7602022445
 C          4.2894653052       -2.1175606056       -1.3913177717
 C          4.3789686547       -3.3907668395       -0.5356745754
 C          5.7991685530       -3.7080483573       -0.0642958383
 H          5.8666800730       -4.7783264768        0.1428580825
 H          6.4921327927       -3.4896118027       -0.8794224818
 C          6.2468093087       -2.9648918373        1.1930887623
 H          5.7162363109       -3.3680867284        2.0583279404
 H          7.3096232316       -3.1720895078        1.3378185457
 C          6.0422649806       -1.4487711935        1.1658552580
 H          6.7378657849       -1.0061721928        1.8818729498
 H          6.2953594532       -1.0463300609        0.1858098107
 C          4.6247923241       -1.0110522632        1.5633021987
 H          4.0969803726       -1.8419989870        2.0406905786
 H          4.6820530438       -0.2205647609        2.3180478858
 H          3.7037236536       -3.3124816077        0.3153420040
 H          4.0307851784       -4.2261694264       -1.1454813326
 H          3.7190320756       -2.3208895238       -2.3006178538
 H          5.2893560346       -1.8144395577       -1.7116354350
 O          2.7825345033       -0.3497433911       -1.6764713744
 C          2.0156912771        0.7656584472       -1.3883444805
 O          1.3206038577        1.1489453696       -2.3519553934
 O          3.0479078988        1.2029920202        2.0429696082
 C          1.2791271868        2.5142393088        0.3146027735
 C         -0.1186745703        2.0446292839        0.6384836493
 C         -0.5458450905        1.9385313448        1.9572868747
 C         -1.7999034236        1.4342970776        2.2543753897
 C         -2.6476162449        1.0144507815        1.2446310364
 C         -2.2252015164        1.1081286846       -0.0745831841
 C         -0.9790063851        1.6366037548       -0.3714175868
 H         -0.6513831816        1.6820621625       -1.3994052772
 N         -3.0677028392        0.6363389075       -1.1071619250
 S         -3.3218508581       -1.0301984924       -1.0805239807
 O         -2.2040907833       -1.7262949403       -0.4823542622
 O         -3.6567060080       -1.3954288757       -2.4400155538
 C         -4.7697052570       -1.2128210585       -0.0596063158
 C         -5.9395078040       -0.6067985188       -0.4750803168
 C         -7.0754717686       -0.7389694562        0.3073643885
 C         -7.0235932147       -1.4730194993        1.4832353704
 C         -5.8423887772       -2.0781630037        1.8844752379
 C         -4.7017524400       -1.9484368316        1.1071706606
 H         -3.7591449754       -2.3951062981        1.3805634206
 H         -5.8035049304       -2.6487949527        2.7984411100
 H         -7.9090580991       -1.5745096919        2.0906432284
 H         -7.9958081025       -0.2700653479       -0.0012897597
 H         -5.9359782103       -0.0510498391       -1.3977582063
 H         -2.7276469617        0.8951500294       -2.0240951585
 H         -3.6209374941        0.6087209654        1.4681399800
 H         -2.1173768927        1.3592166873        3.2831631492
 H          0.1253361896        2.2326680654        2.7511402797
 H          1.7395550236        2.8673724815        1.2467869350
 C          1.2913649280        3.6491080629       -0.6883412579
 C          0.9023494865        5.0225560121       -0.2323808236
 C          2.3314339049        4.7206395646       -0.5669577376
 H          2.7506500654        5.1341243993       -1.4719028681
 H          3.0399918004        4.6397416769        0.2443498001
 H          0.3371327235        5.6474537978       -0.9065140390
 H          0.6416284952        5.1472755398        0.8075731929
 H          1.0074345987        3.3496387289       -1.6885752177
