  62
        -98.93771412
 C         -1.8366565824       -0.9285195487       -0.1120465486
 C         -2.4366324838       -0.2251481108        0.9584471139
 C         -3.5601361954        0.6561374813        0.6079437047
 C         -3.9187484721        0.7761990605       -0.6835203764
 C         -5.0873678357        1.5714969038       -1.1922935551
 C         -6.3985015148        0.7998340801       -0.9397645730
 C         -7.3472254770        1.4752264120        0.0508183547
 H         -7.8385805651        2.3152246340       -0.4447041670
 H         -8.1198574294        0.7485234403        0.3107373198
 C         -6.7051714165        2.0018551223        1.3379728639
 H         -6.2190224048        2.9586046045        1.1409906085
 H         -7.5181133048        2.2049447893        2.0383701608
 C         -5.6941844769        1.0673785080        2.0148592317
 H         -5.8848059824        0.0300675116        1.7389327793
 H         -5.8353066630        1.1402788834        3.0951675645
 C         -4.2187256351        1.4069511999        1.7323976353
 H         -3.6274941033        1.1580385933        2.6187840898
 H         -4.1177627109        2.4828122506        1.5629553859
 H         -6.1436650057       -0.1987127981       -0.5785632718
 H         -6.9289081437        0.6657822946       -1.8837040054
 H         -5.1137328942        2.5425330023       -0.7026258092
 H         -4.9354996710        1.7238148496       -2.2610923999
 O         -3.2909201656        0.1146276796       -1.6897442178
 C         -2.2370543922       -0.7521503506       -1.4364843165
 O         -1.7561948877       -1.2860635445       -2.4525657308
 O         -2.0439830320       -0.3236740793        2.1534252536
 C         -0.6821391481       -1.8697457972        0.1832672049
 C          0.5707960072       -1.3665940588       -0.4906723317
 C          1.3762332779       -2.1502554874       -1.3052620917
 C          2.5016947640       -1.6106506464       -1.9055159991
 C          2.8547402231       -0.2907151708       -1.6979808120
 C          2.0689220038        0.4956267907       -0.8636049887
 C          0.9429444806       -0.0462461226       -0.2643482767
 H          0.3285710093        0.5694416001        0.3810817143
 N          2.4295107321        1.8320014501       -0.6263233745
 S          4.0420673635        2.1801159730       -0.3497476229
 O          4.0357121541        3.3722517501        0.4690959057
 O          4.7389500344        2.2868794105       -1.6074973240
 C          4.6741717559        0.7892419177        0.5724146694
 C          4.0765169015        0.4811847297        1.7785868070
 C          4.5339185406       -0.6143142029        2.4924201790
 C          5.5763184558       -1.3790399035        1.9909750838
 C          6.1701465276       -1.0528559361        0.7818554282
 C          5.7150912239        0.0405671981        0.0623556070
 H          6.1448165324        0.3275634943       -0.8835313690
 H          6.9817830654       -1.6478219784        0.3953727674
 H          5.9268897601       -2.2335708201        2.5478263524
 H          4.0727749656       -0.8686725587        3.4333152173
 H          3.2701140361        1.0969166950        2.1442465852
 H          1.8281251377        2.3127774013        0.0256262751
 H          3.7152444174        0.1480592380       -2.1763084993
 H          3.1102969249       -2.2269757267       -2.5491783994
 H          1.1168810389       -3.1804820501       -1.4831522385
 H         -0.5300692134       -1.8092093433        1.2710758878
 C         -1.0447697274       -3.2937031789       -0.1791834972
 C         -0.3936953659       -4.4401486506        0.5334254617
 C         -1.8309745114       -4.1113287454        0.7999920013
 H         -2.5935572813       -4.7754925221        0.4216657226
 H         -2.0856585887       -3.6482944471        1.7422846363
 H         -0.1698218955       -5.3353337935       -0.0266328767
 H          0.3293693910       -4.2057843706        1.2996611558
 H         -1.2828823388       -3.4090212593       -1.2304034577
