  62
        -98.94379549
 C         -1.6392978204       -1.4270696303        0.4033053522
 C         -1.7673718862       -0.1837547056        1.0784511471
 C         -3.0393899433        0.5246763222        0.9056733452
 C         -4.0185233499       -0.0367002944        0.1742319977
 C         -5.3909180047        0.5345854979       -0.0591857788
 C         -5.4617014033        1.5459871166       -1.2113920576
 C         -4.8142140258        2.9015930936       -0.9263269709
 H         -5.1235220349        3.5783252881       -1.7253729235
 H         -5.2079009521        3.3011985775        0.0087617659
 C         -3.2805150484        2.8691149187       -0.8715724201
 H         -2.8784842220        3.7013232597       -1.4533948646
 H         -2.9189067534        1.9497997715       -1.3381313468
 C         -2.6905804735        2.9730824074        0.5349603564
 H         -1.6051154811        2.8855248822        0.4520412102
 H         -2.9250395204        3.9516372715        0.9597602062
 C         -3.1762170266        1.8903347958        1.5073067456
 H         -2.5502644338        1.9230546719        2.4023940406
 H         -4.2098979271        2.0777795717        1.7975183827
 H         -5.0005326985        1.1004811625       -2.0959136406
 H         -6.5183032366        1.7107990785       -1.4351379468
 H         -5.7538974224        0.9998784600        0.8578250347
 H         -6.0409763095       -0.3090086667       -0.3014677496
 O         -3.8689579642       -1.2395193736       -0.4368529950
 C         -2.6741522894       -1.9459748017       -0.3754013952
 O         -2.6915112552       -2.9961291812       -1.0476963880
 O         -0.8605560341        0.3050889841        1.8025924150
 C         -0.3131074204       -2.1471510084        0.5716610542
 C          0.6375661838       -1.8369824085       -0.5602796391
 C          0.3044069209       -2.1090938052       -1.8830588481
 C          1.1997131230       -1.8293983872       -2.8989239716
 C          2.4361739041       -1.2743385369       -2.6190026079
 C          2.7814617534       -1.0044563948       -1.2995784082
 C          1.8796812296       -1.2857640073       -0.2817650935
 H          2.1605911658       -1.0787347236        0.7389390776
 N          4.0407022677       -0.4772661366       -0.9914116295
 S          4.3096144304        0.4947923037        0.3364026230
 O          5.6026393160        1.0887391242        0.0741954527
 O          4.2046132190       -0.2780793684        1.5482464084
 C          3.0553938702        1.7605596093        0.2857661871
 C          2.1221217002        1.8560702191        1.2960134939
 C          1.1720171196        2.8630925123        1.2392215321
 C          1.1691460481        3.7495131938        0.1742366340
 C          2.1137548272        3.6402030668       -0.8357575344
 C          3.0678525083        2.6384408031       -0.7812699792
 H          3.8279415473        2.5362315018       -1.5386298338
 H          2.1081289613        4.3335036599       -1.6614264537
 H          0.4284495366        4.5330785040        0.1325984557
 H          0.4341154886        2.9327461336        2.0220482180
 H          2.1414802432        1.1477577108        2.1080380544
 H          4.6062045097       -0.2131772847       -1.7837090046
 H          3.1336243293       -1.0598143758       -3.4140483769
 H          0.9311446870       -2.0445254462       -3.9222414161
 H         -0.6596506675       -2.5410524552       -2.1041135227
 H          0.1250717262       -1.7313841514        1.4897855441
 C         -0.4419250613       -3.6479345578        0.7461290134
 C          0.6782334505       -4.3974407214        1.4003197296
 C         -0.6240043499       -4.2155575199        2.1200191292
 H         -1.2723635531       -5.0702179226        2.2417772194
 H         -0.6558964399       -3.5225671936        2.9483593621
 H          0.9270429035       -5.3792744833        1.0278277914
 H          1.5311856033       -3.8285372687        1.7403234623
 H         -0.9667064131       -4.1333580216       -0.0661088992
