  62
        -98.94177463
 C         -0.5874413307       -1.4729910152        0.0364647474
 C         -1.3502985418       -0.7535192873        0.9823275840
 C         -2.4162751886        0.1146006047        0.4494490884
 C         -2.5700555755        0.2243431619       -0.8833363616
 C         -3.5472521725        1.0262435771       -1.7179560793
 C         -4.7303595544        1.7352084640       -1.0651584484
 C         -5.8200635038        0.7972653499       -0.5434266090
 H         -6.3433757134        0.3662233528       -1.4006969659
 H         -6.5429009838        1.3881815017        0.0230213175
 C         -5.3357660990       -0.3619373392        0.3243396525
 H         -4.6552282395       -0.9927367026       -0.2509397675
 H         -6.2045735057       -0.9750830669        0.5789910183
 C         -4.6540199731        0.0390296047        1.6304642132
 H         -4.4767328617       -0.8739993020        2.2057258631
 H         -5.3222288203        0.6757236361        2.2139150489
 C         -3.3055597288        0.7604626786        1.4729693193
 H         -2.7723664438        0.6924308585        2.4258280156
 H         -3.4522313842        1.8137452537        1.2523262433
 H         -5.1825535295        2.3655730980       -1.8354840017
 H         -4.3860728193        2.3979102305       -0.2771021866
 H         -3.9236155466        0.3366046527       -2.4804734725
 H         -2.9419101707        1.7667394086       -2.2500127096
 O         -1.7488638827       -0.4278614569       -1.7587383456
 C         -0.7687291548       -1.3072499351       -1.3350765849
 O         -0.1418679363       -1.8621153143       -2.2568132034
 O         -1.1562778359       -0.8352260295        2.2261460930
 C          0.4783588615       -2.4402396917        0.5160842010
 C          1.8168924297       -2.0784299411       -0.0769623799
 C          2.6855038430       -3.0065998546       -0.6357881271
 C          3.8927181160       -2.5970110491       -1.1749110322
 C          4.2618771049       -1.2650766263       -1.1596848417
 C          3.4034351204       -0.3288975510       -0.5931642375
 C          2.1968324464       -0.7424034708       -0.0545986698
 H          1.5332553284       -0.0145412526        0.3902726164
 N          3.7259688237        1.0347366926       -0.5911063539
 S          3.1973887648        2.0381130399        0.6302210800
 O          4.0160297985        3.2252145744        0.4955659459
 O          3.2483062035        1.3880038268        1.9194689896
 C          1.5204037668        2.4604340561        0.2096346680
 C          0.6201938922        2.6798889451        1.2330265607
 C         -0.6637550211        3.0947920909        0.9207592549
 C         -1.0255079009        3.2775512539       -0.4042487872
 C         -0.1135620048        3.0416028371       -1.4212723437
 C          1.1752135247        2.6354159575       -1.1154025769
 H          1.9080367155        2.4457327613       -1.8822711059
 H         -0.3991961448        3.1764968727       -2.4524360065
 H         -2.0232559810        3.6083668031       -0.6452512185
 H         -1.3721879643        3.2726464894        1.7135022448
 H          0.9374819197        2.5119321642        2.2501361624
 H          4.6507557419        1.2693110004       -0.9193933263
 H          5.2007462089       -0.9469716910       -1.5864793411
 H          4.5563122001       -3.3266843882       -1.6136843738
 H          2.4153558925       -4.0494754677       -0.6581293998
 H          0.5380400992       -2.2995314497        1.6061348206
 C          0.0547529836       -3.8663893135        0.2296260183
 C          0.5082397896       -4.9856137421        1.1173479102
 C         -0.9192727292       -4.5317432040        1.1534405938
 H         -1.6773101639       -5.1732431968        0.7296570919
 H         -1.2560290686       -3.9643688671        2.0089043420
 H          0.7285630404       -5.9431233617        0.6698667234
 H          1.1407894349       -4.7336381823        1.9552010267
 H         -0.0489481495       -4.0619879172       -0.8320870433
