  62
        -98.93950347
 C         -1.3801704688       -1.7354609303       -0.2719801005
 C         -1.3113866295       -0.4175509501       -0.7805529601
 C         -2.5842524499        0.3304056593       -0.8267245497
 C         -3.6982251295       -0.2400133214       -0.3369767998
 C         -5.0683787398        0.3685030278       -0.2147049894
 C         -5.2410285500        1.0505733073        1.1537462908
 C         -4.7985314008        2.5121985175        1.2101332712
 H         -5.4995846711        3.1205371874        0.6347228914
 H         -4.8679950308        2.8309248372        2.2527662013
 C         -3.3804229510        2.7890392584        0.7046061511
 H         -3.0632887514        3.7490958184        1.1156765614
 H         -2.6965594005        2.0293591386        1.0873173708
 C         -3.2880502612        2.8446292789       -0.8267988689
 H         -4.2931167612        2.8885205285       -1.2454620188
 H         -2.7884335817        3.7664903893       -1.1307104387
 C         -2.5085437606        1.6897233995       -1.4672738693
 H         -2.8131660607        1.5921782697       -2.5151340493
 H         -1.4409154908        1.9294237400       -1.4715069194
 H         -6.2952639800        1.0066641867        1.4350167909
 H         -4.6825045297        0.4680406874        1.8908869305
 H         -5.2588645903        1.0621063380       -1.0280062392
 H         -5.7803292294       -0.4565438825       -0.2843034996
 O         -3.7058735088       -1.4942954116        0.1957858899
 C         -2.5674414285       -2.2739936310        0.2268612395
 O         -2.7327577378       -3.4091486013        0.7181967692
 O         -0.2469684798        0.1201321206       -1.1831777100
 C         -0.1467064483       -2.6228456097       -0.2234733209
 C          0.8158415115       -2.0702334595        0.7982704792
 C          0.5399470118       -2.2682871001        2.1495458491
 C          1.3827660716       -1.7683662899        3.1229850392
 C          2.5111140212       -1.0486788192        2.7688224693
 C          2.7878991110       -0.8362278687        1.4234247193
 C          1.9458792911       -1.3500657288        0.4458272593
 H          2.1841188309       -1.1700403384       -0.5881638607
 N          3.9276671705       -0.1157313380        1.0389153994
 S          3.9255931199        0.8784276924       -0.2988257103
 O          3.9412750602        0.0971072828       -1.5098339305
 O          5.0834238095        1.7281663629       -0.0977171702
 C          2.4650817394        1.9011950116       -0.2218470798
 C          1.9636081490        2.3965765517       -1.4070728796
 C          0.8968587086        3.2787360612       -1.3705534792
 C          0.3454068585        3.6432175905       -0.1528111691
 C          0.8529906389        3.1292617904        1.0287162707
 C          1.9292561593        2.2573916510        0.9986012904
 H          2.3376324896        1.8530793009        1.9104944702
 H          0.4137826389        3.4042242899        1.9745397509
 H         -0.4898627018        4.3250814301       -0.1236422488
 H          0.4962340183        3.6718044713       -2.2917961191
 H          2.4096607791        2.0741459722       -2.3341719098
 H          4.4655600604        0.2810174520        1.7952257295
 H          3.1742868411       -0.6587567791        3.5262272393
 H          1.1609027918       -1.9371860603        4.1658508592
 H         -0.3481690479       -2.8221428506        2.4218451991
 H         -0.4968248078       -3.5993708000        0.1391717589
 C          0.4620965716       -2.8073255890       -1.5969969210
 C          1.4109792422       -3.9424612084       -1.8317674215
 C          0.0393596621       -3.9744088689       -2.4350684413
 H         -0.0596876081       -3.8343649287       -3.5010982213
 H         -0.6877225575       -4.6543146494       -2.0148016314
 H          2.2582872220       -3.7783790578       -2.4801789315
 H          1.6145929626       -4.6016890486       -1.0012567117
 H          0.6554772311       -1.8742762887       -2.1119047607
