  62
        -98.94546152
 C          2.6547775593        1.0416493906        0.2662829386
 C          2.5211121992        0.2836890199       -0.9227596210
 C          3.1033776697       -1.0657922398       -0.8895066004
 C          3.7233787502       -1.4906768490        0.2263198197
 C          4.3054153808       -2.8608802787        0.4164471003
 C          3.2758183513       -3.8179886287        1.0333768611
 C          1.9165023211       -3.8003803596        0.3327538415
 H          1.2804019115       -4.5343117496        0.8330934420
 H          1.4449382308       -2.8246799997        0.4779689511
 C          1.9712848508       -4.1118777404       -1.1693335984
 H          2.9154364009       -4.6013853402       -1.4121424384
 H          1.1685726009       -4.8124720608       -1.4086267478
 C          1.7817329800       -2.8945858010       -2.0767163090
 H          0.8811271899       -2.3505834911       -1.7757217890
 H          1.6170322699       -3.2544625516       -3.0960274088
 C          2.9572320997       -1.9094223206       -2.1239103399
 H          3.8817168298       -2.4506021103       -2.3355432299
 H          2.7698602292       -1.2101832311       -2.9439741202
 H          3.6847237617       -4.8295247386        1.0078224415
 H          3.1247368415       -3.5385783682        2.0787487410
 H          4.6425205606       -3.2433571791       -0.5447024496
 H          5.1617568909       -2.7813949380        1.0881564300
 O          3.8441268202       -0.7278540883        1.3435121792
 C          3.2900995198        0.5415474715        1.4014084587
 O          3.4241858099        1.1121529722        2.5038412683
 H          0.3973919398        0.7309369605        1.5661154894
 C         -0.1463820607        1.3326062799        0.8461198592
 C          0.5417622588        2.2954959498        0.1171514485
 C         -0.1665900418        3.0612420890       -0.7981439417
 C         -1.5209373218        2.8460452384       -0.9908367612
 C         -2.1961819012        1.8733968985       -0.2769682305
 C         -1.4991220706        1.1105506393        0.6512705097
 N         -2.1792649501        0.1149249095        1.3845009605
 S         -2.8564032099       -1.1295755713        0.4728290114
 O         -2.9491148492       -2.2554123508        1.3778012220
 O         -2.1237582201       -1.3495303417       -0.7525723787
 C         -4.4945656602       -0.5313615921        0.1174224915
 C         -4.9150825906       -0.4030495130       -1.1915574684
 C         -6.1951324209        0.0685276764       -1.4397259483
 C         -7.0257840207        0.4013295267       -0.3806166483
 C         -6.5883584403        0.2642668476        0.9286562617
 C         -5.3108688100       -0.2077972018        1.1837910316
 H         -4.9314481597       -0.3324403011        2.1841953915
 H         -7.2370418101        0.5246276378        1.7494088517
 H         -8.0200721509        0.7703441962       -0.5768459082
 H         -6.5369021512        0.1760209457       -2.4566099883
 H         -4.2302262507       -0.6663678631       -1.9818708985
 H         -1.6145247397       -0.2830484399        2.1223088505
 H         -3.2480450012        1.6968611781       -0.4323684401
 H         -2.0572148922        3.4420583778       -1.7133462914
 H          0.3444772278        3.8157683089       -1.3729652923
 C          2.0277284988        2.4227266805        0.3533191680
 H          2.1838164990        2.7649437711        1.3868594878
 C          2.7179989282        3.3838918202       -0.5902861627
 C          2.7329812077        4.8518019904       -0.2899995036
 C          3.9872028280        4.0445895709       -0.1464926735
 H          4.7770145378        4.1811282408       -0.8697049338
 H          4.3420070184        3.8176781816        0.8485844466
 H          2.2385744978        5.1826401607        0.6107439664
 H          2.6649346672        5.5471890599       -1.1127935839
 H          2.6526381180        3.0698909396       -1.6254415325
 O          1.9458841287        0.7090849891       -1.9574814810
