  62
        -98.94480040
 C          2.0096386559        0.9627153744       -0.4395740342
 C          3.0777445605        1.2452169331        0.4495303231
 C          4.3610753764        0.6083860079        0.1376801095
 C          4.4660586600       -0.1853715053       -0.9435067740
 C          5.7108875466       -0.8938661888       -1.4041517060
 C          5.9626694844       -2.2337991037       -0.6991323702
 C          6.4258955053       -2.1280048177        0.7544393512
 H          6.7721387720       -3.1196833154        1.0524874089
 H          7.2808214748       -1.4536892894        0.8140306114
 C          5.3369781581       -1.6708281440        1.7352066027
 H          4.3546679528       -1.7928829211        1.2724869329
 H          5.3534414779       -2.3101084682        2.6208254928
 C          5.4823672538       -0.2269975470        2.2161365783
 H          6.4010808353       -0.1255295734        2.7980628880
 H          4.6398691825        0.0007332046        2.8739249055
 C          5.4998059439        0.8151039271        1.0902044205
 H          5.3837630011        1.8052012389        1.5376783733
 H          6.4510309048        0.7800819066        0.5596984314
 H          6.7340494594       -2.7601484217       -1.2661418266
 H          5.0491606448       -2.8312111946       -0.7479458326
 H          6.5749098066       -0.2424525088       -1.2698514739
 H          5.5823870134       -1.0858411758       -2.4716237134
 O          3.4208018895       -0.4251436826       -1.7776916498
 C          2.1660097985        0.1200505377       -1.5400208077
 O          1.3063773098       -0.2119364508       -2.3789333312
 O          2.9630919254        1.9980582784        1.4524547040
 C          0.6525262004        1.5756842951       -0.1357372158
 C         -0.2781866050        0.4796838593        0.3195138679
 C         -0.2410335473        0.0582403475        1.6456348638
 C         -1.0628925970       -0.9619578703        2.0875359522
 C         -1.9382986264       -1.5850573656        1.2152211076
 C         -1.9752340345       -1.1772356351       -0.1112196828
 C         -1.1584715730       -0.1444638505       -0.5509163483
 H         -1.1873700319        0.1515104216       -1.5874882431
 N         -2.8750621933       -1.8006989874       -0.9981797968
 S         -4.4852035418       -1.7753376756       -0.5360428504
 O         -4.7270232849       -2.8239231042        0.4231670302
 O         -5.2452655057       -1.8536539817       -1.7636136560
 C         -4.6928098707       -0.1822388711        0.2402713515
 C         -4.5736273617        0.9440383099       -0.5498653621
 C         -4.6566379761        2.1920483649        0.0448365970
 C         -4.8509347364        2.2918740716        1.4141186779
 C         -4.9713166771        1.1518664052        2.1931286083
 C         -4.8888714071       -0.0994926587        1.6034202085
 H         -4.9738740317       -1.0109702626        2.1719191479
 H         -5.1234295414        1.2330947967        3.2573161017
 H         -4.9087175250        3.2651771731        1.8754286808
 H         -4.5634962222        3.0807567039       -0.5585171315
 H         -4.4276914738        0.8297556157       -1.6120657291
 H         -2.7702205186       -1.4912475281       -1.9536611290
 H         -2.5895339052       -2.3815085689        1.5376139077
 H         -1.0232213075       -1.2758973092        3.1194567961
 H          0.4491209779        0.5385038720        2.3250246094
 H          0.8260025718        2.2471574044        0.7158830551
 C          0.1085495947        2.3863821859       -1.2938546049
 C         -1.0885765065        3.2606909729       -1.0709513170
 C          0.2608700695        3.8764880884       -1.2832904170
 H          0.4583684116        4.3796979827       -2.2180353947
 H          0.7598631946        4.3217597045       -0.4352614433
 H         -1.8193356149        3.3429845554       -1.8608436990
 H         -1.5082104547        3.2821805146       -0.0766696017
 H          0.2011122233        1.8870116856       -2.2505796101
