  62
        -98.93558606
 C          2.5483253371        0.8205303890        0.7501639749
 C          2.8250436793        0.3314339391       -0.5509780739
 C          3.5221047244       -0.9642642825       -0.6127198364
 C          3.8350691692       -1.6064051265        0.5264215011
 C          4.4963627048       -2.9514182369        0.6025331316
 C          3.4569408690       -4.0802649765        0.6483930012
 C          2.3747945248       -3.9683757119       -0.4257452488
 H          1.7712241568       -3.0779661080       -0.2342757125
 H          1.7164774980       -4.8327010563       -0.3150511839
 C          2.9103880473       -3.9148905597       -1.8633414368
 H          2.3104527173       -4.5821407921       -2.4856544511
 H          3.9367428411       -4.2827577860       -1.8903166386
 C          2.8521161561       -2.5302712714       -2.5115922938
 H          1.8461745255       -2.1154696528       -2.4056808760
 H          3.0453575962       -2.6473913992       -3.5812805234
 C          3.8550951244       -1.5004313590       -1.9765947600
 H          3.8354190895       -0.6390349061       -2.6507051917
 H          4.8613207124       -1.9244145118       -1.9894801973
 H          2.9713536522       -4.0639025621        1.6268722741
 H          3.9783822668       -5.0333831882        0.5439115545
 H          5.0989033365       -2.9872661672        1.5117635345
 H          5.1488756539       -3.0783628181       -0.2590649572
 O          3.5293606429       -1.1184811885        1.7562416444
 C          2.8654076366        0.0888462989        1.8973404333
 O          2.6093483835        0.3948736275        3.0796048597
 O          2.5160198660        0.9313025404       -1.6116864998
 C          1.8205787601        2.1360395058        0.9705437534
 C          0.6217319173        2.2205446881        0.0570489928
 C          0.4571841909        3.2004396403       -0.9116835212
 C         -0.6735909744        3.2104224336       -1.7100003350
 C         -1.6590696911        2.2526795623       -1.5615933616
 C         -1.5069526502        1.2692287044       -0.5922318745
 C         -0.3775419272        1.2667993829        0.2122983987
 H         -0.2556465966        0.5005407238        0.9694459598
 N         -2.4946970527        0.2746428130       -0.4427631132
 S         -4.1020064614        0.7986235587       -0.4177805618
 O         -4.5337447128        1.0139911245       -1.7758421461
 O         -4.2428703187        1.9275208472        0.4750863949
 C         -4.9216004045       -0.6339315335        0.2528793511
 C         -5.2778089961       -0.6509757790        1.5878291592
 C         -5.8988418153       -1.7789705938        2.1011345834
 C         -6.1480494818       -2.8652725294        1.2760103337
 C         -5.7837572154       -2.8332036899       -0.0621027796
 C         -5.1641874457       -1.7081756955       -0.5822359602
 H         -4.8723682944       -1.6346223047       -1.6168022753
 H         -5.9815101246       -3.6791569223       -0.7004203926
 H         -6.6320633525       -3.7413228093        1.6779620405
 H         -6.1855009794       -1.8056525320        3.1401487455
 H         -5.0712397730        0.2193378079        2.1901073620
 H         -2.3069286564       -0.3237003475        0.3505469865
 H         -2.5435774627        2.2540724681       -2.1779147549
 H         -0.7873618390        3.9742150486       -2.4647408302
 H          1.2241379832        3.9427110899       -1.0593007017
 H          1.4447234514        2.0807293164        2.0060856046
 C          2.7150337753        3.3649074133        0.9065776357
 C          4.1566959746        3.2883815920        1.3098783607
 C          3.7910257613        3.5297106058       -0.1223367370
 H          3.9580038968        4.5149218081       -0.5329932058
 H          3.9299991390        2.7316745614       -0.8337690666
 H          4.5730295081        4.1039841461        1.8818091918
 H          4.5483094438        2.3192604422        1.5834782201
 H          2.1824380627        4.2637857191        1.2026191533
