  62
        -98.93708740
 C         -2.0123105330       -0.4095372627       -0.3038435204
 C         -3.0259997439       -0.9066046687        0.5515397205
 C         -4.2357879335       -0.0828780623        0.6694991205
 C         -4.3082537098        1.0879832981        0.0113358172
 C         -5.4364692077        2.0839972007        0.0673904730
 C         -6.7884381815        1.6178942376       -0.5065416649
 C         -7.7488148693        1.0304281499        0.5350526905
 H         -7.4887574239        1.4289631400        1.5164808256
 H         -8.7604849774        1.3771754613        0.3145834390
 C         -7.8055188155       -0.4986951170        0.6026599754
 H         -8.4084135055       -0.8702348839       -0.2291384140
 H         -8.3174046111       -0.7734620633        1.5274625876
 C         -6.4583350143       -1.2193968174        0.5492311164
 H         -6.0751699713       -1.2058664669       -0.4738760907
 H         -6.6231741095       -2.2684576792        0.8028514195
 C         -5.3767172685       -0.6314207330        1.4761818130
 H         -5.7980533529        0.1399016171        2.1191831293
 H         -4.9608335762       -1.4179383839        2.1090326010
 H         -6.6154093736        0.9043308877       -1.3117131224
 H         -7.2623087183        2.4954642723       -0.9492940929
 H         -5.0875559150        2.9491549882       -0.5002629782
 H         -5.5729503553        2.3995673956        1.1043500801
 O         -3.3004298794        1.5419996019       -0.7823959063
 C         -2.1376339963        0.8089123924       -0.9709282243
 O         -1.3191025277        1.3457635386       -1.7414908868
 O         -2.9213568751       -1.9861518471        1.1923857018
 C         -0.7391688097       -1.2249656721       -0.4595087074
 C          0.3956240991       -0.4594976213        0.1736469131
 C          0.4913910765       -0.4284108635        1.5627157377
 C          1.4850682620        0.3008517867        2.1873080803
 C          2.4041583165        1.0175787856        1.4406251915
 C          2.3179326896        0.9914252969        0.0552784958
 C          1.3271390670        0.2456713491       -0.5716155072
 H          1.2653274424        0.2480658818       -1.6480856035
 N          3.2464210639        1.7165465504       -0.7080603903
 S          4.8612465132        1.6358605180       -0.2874815804
 O          5.1243291630        2.5231150874        0.8184575552
 O          5.5861027999        1.9161657304       -1.5069763173
 C          5.1221888439       -0.0547685128        0.2205308569
 C          4.9076160965       -1.0523548682       -0.7099992737
 C          5.0703274017       -2.3732397424       -0.3262110960
 C          5.4404042145       -2.6730747092        0.9761277249
 C          5.6560977846       -1.6602538736        1.8973150011
 C          5.4944035623       -0.3369150099        1.5188291313
 H          5.6510152480        0.4808023231        2.2032883716
 H          5.9455494867       -1.8961611625        2.9086843905
 H          5.5621075319       -3.7027652056        1.2732877926
 H          4.9047354128       -3.1627829611       -1.0415238460
 H          4.6264374942       -0.7849713547       -1.7158570910
 H          3.1090145817        1.6446866050       -1.7048187069
 H          3.1742409896        1.6083434740        1.9094806651
 H          1.5441864013        0.3172360758        3.2649235133
 H         -0.2353853672       -0.9765819579        2.1458852083
 H         -0.9069283596       -2.1354952528        0.1316013153
 C         -0.4936428534       -1.6179380984       -1.9005947065
 C          0.4737045286       -2.7210790254       -2.2066165314
 C         -0.9969544859       -2.9405318498       -2.3923871086
 H         -1.3884027415       -3.0001837887       -3.3969917825
 H         -1.5143874202       -3.5722055818       -1.6853822653
 H          1.0944194549       -2.6354833231       -3.0854457982
 H          0.9549522410       -3.2039626849       -1.3699415218
 H         -0.5506245242       -0.7825108060       -2.5881666283
