  62
        -98.93943975
 C         -2.6420179489       -1.2419159695        0.2254391140
 C         -2.4405312897       -0.1974826087       -0.7116423359
 C         -3.5651008106        0.7385156764       -0.8783953815
 C         -4.6937728125        0.5564526135       -0.1712495387
 C         -5.8852875217        1.4680511618       -0.2032853196
 C         -5.7806993882        2.5533335872        0.8776550089
 C         -4.4322625928        3.2734230987        0.9037984986
 H         -4.4863403554        4.0346237848        1.6851852938
 H         -3.6543943643        2.5653590154        1.1992512139
 C         -4.0376197607        3.9323998703       -0.4252932058
 H         -4.9189538445        4.0477450693       -1.0573528371
 H         -3.6536788754        4.9335729175       -0.2185979106
 C         -2.9493934343        3.1903967098       -1.2035647334
 H         -2.5966403311        3.8466173752       -2.0036130921
 H         -2.0993642947        2.9896088639       -0.5462950328
 C         -3.3780532673        1.8680472786       -1.8518203848
 H         -4.2828306585        2.0229078146       -2.4430987118
 H         -2.5753826666        1.5537164350       -2.5253685787
 H         -5.9378793026        2.0865009999        1.8528467578
 H         -6.5797940824        3.2791767115        0.7161688993
 H         -5.9599334758        1.9262713290       -1.1875166933
 H         -6.7807987118        0.8714872998       -0.0211076310
 O         -4.8565504535       -0.4658941280        0.7073150338
 C         -3.8327433773       -1.3670376814        0.9468335598
 O         -4.1001925569       -2.2230465290        1.8139395792
 H          0.7236162312       -2.1759263429       -0.9976660720
 C          0.8133309229       -1.5875915297       -0.0978091998
 C         -0.2497355985       -1.5187229968        0.7870834367
 C         -0.1188043640       -0.7288678710        1.9259475570
 C          1.0439084049       -0.0222260547        2.1653345262
 C          2.0985635696       -0.0812364827        1.2709901486
 C          1.9786324638       -0.8658363230        0.1324121601
 N          3.0246544653       -0.9046735731       -0.7987106336
 S          4.6169639536       -0.9510911823       -0.2987973790
 O          5.3488878940       -1.4801974376       -1.4291061543
 O          4.7644314704       -1.6667705895        0.9478274120
 C          5.0537954894        0.7609140676       -0.0752295018
 C          5.7116385693        1.1570929644        1.0726853027
 C          6.0590729736        2.4909522980        1.2203366497
 C          5.7454216106        3.4001328321        0.2218889157
 C          5.0862633389        2.9858706839       -0.9259525380
 C          4.7373325642        1.6537454394       -1.0802061551
 H          4.2228875897        1.2952365435       -1.9562602069
 H          4.8417316661        3.6957868140       -1.6997374809
 H          6.0152136230        4.4378548648        0.3389268707
 H          6.5711340504        2.8150411980        2.1121176523
 H          5.9287479979        0.4170285198        1.8265103783
 H          2.8529010443       -1.4873922177       -1.6036591805
 H          3.0061307197        0.4720955743        1.4489785865
 H          1.1299948407        0.5865496571        3.0527737341
 H         -0.9480044599       -0.6716973787        2.6186946970
 C         -1.5505894122       -2.2471249216        0.5569811671
 H         -1.8598176593       -2.6928595832        1.5165973958
 C         -1.4293801592       -3.3987133064       -0.4295290674
 C         -2.6499455063       -3.9739236005       -1.0823060807
 C         -1.6379709199       -3.2363365682       -1.9039840949
 H         -1.0108888389       -3.8076764195       -2.5735463667
 H         -1.8877383299       -2.2543146150       -2.2724182076
 H         -2.7201270205       -5.0460695956       -1.1880515182
 H         -3.5955826622       -3.4923064941       -0.8796368865
 H         -0.6686173890       -4.1104974052       -0.1213627396
 O         -1.3892597760       -0.0394862446       -1.3828545632
