  62
        -98.94299277
 C         -2.6802805703        1.2027346503       -0.1342559432
 C         -2.6959156314        0.2114844726        0.8760672189
 C         -3.8879757965       -0.6482496838        0.9071994292
 C         -4.8772754711       -0.4376543334        0.0198135412
 C         -6.1170505561       -1.2752464796       -0.0968343107
 C         -5.9178649357       -2.4234399747       -1.0963578556
 C         -4.6348733150       -3.2237631111       -0.8713612751
 H         -3.7735756234       -2.5814855606       -1.0693123193
 H         -4.6164987699       -4.0233864542       -1.6150906082
 C         -4.5016335652       -3.8285977439        0.5331969077
 H         -4.1610445944       -4.8617779644        0.4382259550
 H         -5.4772519463       -3.8527026382        1.0200333736
 C         -3.5001351864       -3.1113672051        1.4404537853
 H         -2.5456280875       -3.0011357045        0.9193290761
 H         -3.3239531217       -3.7410783486        2.3165818154
 C         -3.9317866936       -1.7301603484        1.9491998601
 H         -3.2233225370       -1.4261340992        2.7252955465
 H         -4.9254332991       -1.7959209946        2.3969614975
 H         -5.8865763586       -2.0030991077       -2.1042938189
 H         -6.7802735629       -3.0894974963       -1.0330225740
 H         -6.9312056608       -0.6382123683       -0.4464716961
 H         -6.3746840514       -1.6726378388        0.8828852692
 O         -4.8368942974        0.5437240254       -0.9180390913
 C         -3.7353630744        1.3758202242       -1.0294621590
 O         -3.8129336433        2.2151608556       -1.9497359925
 O         -1.7657263386        0.0514373718        1.7084844083
 C         -1.4806507145        2.1234654786       -0.2692018419
 C         -0.2324467044        1.3036414006       -0.4899443974
 C         -0.2217260565        0.3715027410       -1.5248791818
 C          0.8953393047       -0.4031109588       -1.7680189460
 C          2.0291895629       -0.2671365488       -0.9853504899
 C          2.0353482710        0.6676014216        0.0395168976
 C          0.9110179369        1.4501095346        0.2777775188
 H          0.9328801681        2.1703201756        1.0807755610
 N          3.1771763140        0.8062905816        0.8434038971
 S          4.6858398649        0.8959133516        0.1197744977
 O          5.5223019124        1.5815501639        1.0804163975
 O          4.6074527230        1.4841693216       -1.1972367769
 C          5.2103696093       -0.8014218909        0.0015349326
 C          5.2027147803       -1.5683424325        1.1500224240
 C          5.6175378368       -2.8883630566        1.0755530074
 C          6.0335792594       -3.4153465180       -0.1381287749
 C          6.0392764889       -2.6311709919       -1.2814180688
 C          5.6246795335       -1.3101048774       -1.2137879353
 H          5.6066974706       -0.6649383945       -2.0778493446
 H          6.3634679059       -3.0426279894       -2.2238592965
 H          6.3550238986       -4.4434612461       -0.1931766449
 H          5.6141374238       -3.5014969211        1.9623843516
 H          4.8741983655       -1.1222971794        2.0739123372
 H          3.0815003041        1.4849076629        1.5844126715
 H          2.9021521551       -0.8724237148       -1.1664908463
 H          0.8844340981       -1.1238390333       -2.5717929160
 H         -1.1083299603        0.2632021222       -2.1356697434
 H         -1.6565734230        2.7224139923       -1.1747463672
 C         -1.4030271702        3.0562472152        0.9211816158
 C         -0.7393033899        4.3933022847        0.7884112769
 C         -2.2300287908        4.3051209899        0.9146609935
 H         -2.6899635635        4.6243916576        1.8378151906
 H         -2.8325367877        4.4955726450        0.0383413318
 H         -0.1777144782        4.7785438166        1.6265127443
 H         -0.3258790232        4.6530681502       -0.1746685666
 H         -1.3078341441        2.5259583249        1.8619493692
