  62
        -98.94326122
 C         -2.3802896447       -0.4770833753        0.1057365752
 C         -3.4447706635       -0.3965754071        1.0354052797
 C         -4.4406825773        0.6528142612        0.7829198348
 C         -4.2772511620        1.4736814489       -0.2709174370
 C         -5.2380228162        2.5549170650       -0.6711188044
 C         -6.2814170001        2.0312138351       -1.6679030645
 C         -6.9503960880        0.7269664030       -1.2339755289
 H         -7.6880607893        0.4702547711       -1.9974087701
 H         -6.2045589864       -0.0712122359       -1.2268400036
 C         -7.6359440755        0.7909446430        0.1380025942
 H         -7.8012909468        1.8309465263        0.4215753704
 H         -8.6163737544        0.3159903576        0.0619871396
 C         -6.8803008392        0.0743833594        1.2586826855
 H         -7.5479908994       -0.0074412621        2.1205305395
 H         -6.6308981829       -0.9412508621        0.9410975544
 C         -5.5944839545        0.7582542543        1.7402614822
 H         -5.2717412676        0.2519773218        2.6548087485
 H         -5.8015309757        1.8028727890        1.9814306461
 H         -7.0409452579        2.8023013921       -1.8091875917
 H         -5.7881251888        1.8600570360       -2.6274810470
 H         -4.6716359397        3.3604869674       -1.1413142586
 H         -5.7320616275        2.9420000618        0.2179190595
 O         -3.2288478280        1.3810448383       -1.1278994433
 C         -2.2584630137        0.4024635745       -0.9699343254
 O         -1.3632626822        0.4238029466       -1.8353503156
 O         -3.5535630619       -1.1630978949        2.0303119107
 C         -1.3187882387       -1.5452643893        0.3016408050
 C          0.0207874149       -0.8887967402        0.5262597952
 C          0.1652659649       -0.0292583042        1.6130309096
 C          1.3667432715        0.6057209242        1.8579087378
 C          2.4526692760        0.4013023478        1.0235902532
 C          2.3233768279       -0.4597798238       -0.0561439948
 C          1.1145652355       -1.1034915014       -0.2956401653
 H          1.0311910615       -1.7661392966       -1.1428492993
 N          3.4165215508       -0.6652662023       -0.9121807309
 S          4.9252061980       -0.9812274208       -0.2544097123
 O          5.6400035638       -1.7060505985       -1.2823076435
 O          4.8164210022       -1.6311403098        1.0309979992
 C          5.6607148448        0.6292215995       -0.0653173733
 C          6.1354735639        1.0295628539        1.1682192281
 C          6.7151805282        2.2830084832        1.2888519928
 C          6.8105446015        3.1087730759        0.1793197917
 C          6.3314004061        2.6906560885       -1.0533460568
 C          5.7513715043        1.4387414426       -1.1805885055
 H          5.3704452961        1.0762501282       -2.1208218054
 H          6.4073845350        3.3356072265       -1.9139978685
 H          7.2613549370        4.0839165137        0.2753662297
 H          7.0889637876        2.6097942359        2.2459470311
 H          6.0365090219        0.3555414926        2.0043269894
 H          3.2194986861       -1.2728201792       -1.6936959826
 H          3.3918018808        0.8977693927        1.2049346550
 H          1.4606241122        1.2700317497        2.7036324311
 H         -0.6839927697        0.1339715803        2.2626214270
 H         -1.5991857639       -2.0673376500        1.2281863234
 C         -1.3395688010       -2.5384936033       -0.8404084652
 C         -0.7838623831       -3.9166896943       -0.6443184923
 C         -2.2639555084       -3.7148946774       -0.7636768759
 H         -2.7585793018       -4.0418360057       -1.6660510543
 H         -2.8681183651       -3.8152836307        0.1260954018
 H         -0.2629066748       -4.3865106497       -1.4651940683
 H         -0.3802791964       -4.1583160638        0.3274905286
 H         -1.2129308199       -2.0677808008       -1.8090006806
