  62
        -98.94327818
 C         -1.2749902004        1.2164528026       -0.2646041691
 C         -2.1649037638        0.7572331958       -1.2675672191
 C         -2.8240488479       -0.5303155796       -1.0109026715
 C         -2.5077140356       -1.2179150849        0.1013487706
 C         -3.1396611735       -2.5148497894        0.5144015823
 C         -4.3632530384       -2.2740813278        1.4098099180
 C         -5.3466817639       -1.2466949496        0.8492884931
 H         -6.1833877331       -1.1814366463        1.5481964009
 H         -4.8669975573       -0.2653486897        0.8317513377
 C         -5.8775720000       -1.5748870804       -0.5532647157
 H         -5.7121882173       -2.6298177092       -0.7752033985
 H         -6.9565321388       -1.4066960659       -0.5678463900
 C         -5.2797682590       -0.7220927154       -1.6740862720
 H         -5.3643666054        0.3363463961       -1.4140761468
 H         -5.8734955452       -0.8836126465       -2.5778799275
 C         -3.8167042110       -1.0165901366       -2.0290166850
 H         -3.6912776791       -2.0857783504       -2.2122772578
 H         -3.5851059450       -0.4805290897       -2.9543370650
 H         -4.8758235957       -3.2262403384        1.5581585279
 H         -4.0166106664       -1.9189303376        2.3828593801
 H         -3.4316683734       -3.0710634641       -0.3742808521
 H         -2.4035704345       -3.0960074366        1.0712989633
 O         -1.6003486637       -0.7791367401        1.0069440362
 C         -0.9602104099        0.4443397687        0.8565960487
 O         -0.1564902039        0.7064882178        1.7670302332
 H          1.0086720560        0.8540766762       -1.7732201912
 C          1.5680507106        1.4089034940       -1.0290548927
 C          0.9087255041        2.3637929341       -0.2635468337
 C          1.6349103466        3.0623182658        0.6904673484
 C          2.9811509312        2.7981795164        0.8779973587
 C          3.6306085902        1.8400579297        0.1219539462
 C          2.9129976087        1.1394519298       -0.8391449600
 N          3.5613125066        0.1498026225       -1.6109561385
 S          4.1833937353       -1.1575662317       -0.7666576372
 O          5.3109484079       -0.7156024530        0.0133401107
 O          4.4568053660       -2.1616131735       -1.7708064223
 C          2.8689274477       -1.7050432247        0.3053574666
 C          1.9319301272       -2.5836732045       -0.2005910859
 C          0.8885923535       -2.9917735986        0.6135875560
 C          0.7958555195       -2.5084197613        1.9094118871
 C          1.7376886556       -1.6174367462        2.3979797148
 C          2.7861149523       -1.2090542774        1.5902047183
 H          3.5382937680       -0.5191130555        1.9359447016
 H          1.6502328925       -1.2291692510        3.3992854898
 H         -0.0215132653       -2.8172040560        2.5418279404
 H          0.1496682386       -3.6792319326        0.2324558980
 H          2.0440554491       -2.9436601259       -1.2112898256
 H          2.9883077799       -0.1929794032       -2.3696604138
 H          4.6729113832        1.6084438460        0.2707516790
 H          3.5314614978        3.3423725061        1.6305357670
 H          1.1416923887        3.7940653921        1.3086419796
 C         -0.5697558611        2.5414234097       -0.4981605505
 H         -0.7210526760        2.7451835532       -1.5718068254
 C         -1.1699658702        3.7203871725        0.2515330395
 C         -2.6250119419        3.7409954022        0.6106064969
 C         -1.5893269158        3.6341832323        1.6872823493
 H         -1.4219765600        4.4932737250        2.3205684950
 H         -1.4607010273        2.6891783646        2.1903120475
 H         -3.1681447304        4.6681257675        0.5043450483
 H         -3.2097699474        2.8637254074        0.3743450145
 H         -0.7445212900        4.6645192853       -0.0750210000
 O         -2.3901773077        1.3913195316       -2.3341639451
