  62
        -98.94444055
 C          1.2178521875        1.3709386625        0.2876634523
 C          1.4013167087        0.3647555516       -0.6905877502
 C          2.3727491016       -0.6904129847       -0.3517757526
 C          2.9844720846       -0.6731319982        0.8457535613
 C          4.0153728350       -1.6643091315        1.3014410384
 C          5.4327454167       -1.1885152871        0.9538328075
 C          5.5925525777       -0.7348447766       -0.4972612048
 H          4.9938211838        0.1645653987       -0.6586621664
 H          6.6384211165       -0.4530163091       -0.6368101612
 C          5.2056646968       -1.7931310202       -1.5398756872
 H          5.1904481935       -2.7811193247       -1.0783126891
 H          5.9699086880       -1.8120664456       -2.3197056411
 C          3.8672555785       -1.5391172503       -2.2365824488
 H          3.8428926495       -0.5167466178       -2.6226257473
 H          3.7973307930       -2.2128063789       -3.0949689107
 C          2.6143392208       -1.7606882534       -1.3795074020
 H          1.7483564717       -1.7407143064       -2.0485374199
 H          2.6598722121       -2.7466776886       -0.9118427802
 H          6.1308457999       -2.0014048841        1.1616062850
 H          5.6855550112       -0.3482005199        1.6043898542
 H          3.9341635465       -1.7712487077        2.3844479974
 H          3.8208597425       -2.6276511268        0.8335947401
 O          2.7601565050        0.2915637491        1.7726918465
 C          1.8940157385        1.3380290892        1.5125064573
 O          1.8095963843        2.1702714361        2.4364777721
 H         -1.5364072500        0.9089403616       -1.1577666643
 C         -1.9175613619        1.3201778505       -0.2360623817
 C         -1.1285214796        2.1663619402        0.5331098608
 C         -1.6445977252        2.6681089100        1.7233791078
 C         -2.9250770231        2.3436841232        2.1311231767
 C         -3.7116297156        1.5086736575        1.3598526889
 C         -3.2043381142        0.9930217105        0.1717913776
 N         -4.0057930111        0.1567271310       -0.6227384562
 S         -3.3839633523       -1.2513250214       -1.2764541624
 O         -2.5406671168       -0.9540981020       -2.4028037312
 O         -4.5569237386       -2.0531533959       -1.5566999887
 C         -2.4576969100       -1.9914669111        0.0545315756
 C         -1.0826971962       -1.8940155534        0.0749034960
 C         -0.3907952265       -2.4245632110        1.1529286038
 C         -1.0829030001       -3.0396481962        2.1839640391
 C         -2.4662525892       -3.1352279856        2.1451012361
 C         -3.1629445687       -2.6029500551        1.0733543506
 H         -4.2364616110       -2.6666632080        0.9994597396
 H         -2.9997875248       -3.6192763829        2.9471302137
 H         -0.5384024032       -3.4481597132        3.0206793726
 H          0.6850161723       -2.3424811312        1.1808510391
 H         -0.5777678894       -1.4092479487       -0.7445522399
 H         -4.9256816440       -0.0116371342       -0.2409050232
 H         -4.7145609249        1.2573684559        1.6697459122
 H         -3.3129838171        2.7429384695        3.0556906775
 H         -1.0244406362        3.3081299361        2.3337607390
 C          0.2713953718        2.5490811749        0.1106599457
 H          0.6257748230        3.3133969312        0.8163269529
 C          0.2904109420        3.1507697445       -1.2795237795
 C         -0.1584330218        4.5692555571       -1.4549761507
 C          1.2915845942        4.2182470684       -1.5984909513
 H          1.7335099969        4.2315363239       -2.5835877291
 H          1.9691664619        4.5200262236       -0.8125920624
 H         -0.4624569028        5.1112306478       -0.5720357195
 H         -0.7163811192        4.8256408356       -2.3424709069
 H          0.0516416833        2.4472196635       -2.0656386271
 O          0.7983911045        0.3211030902       -1.7960402956
