  62
        -98.93197473
 C          2.8062048301        0.2841487091       -0.0651288799
 C          2.2706711298       -0.6096318506       -1.0214993301
 C          2.1779487891       -2.0275448006       -0.6204856003
 C          2.5366276288       -2.3952905609        0.6223455897
 C          2.5509103181       -3.7501318510        1.2982395696
 C          1.8018891876       -4.9334119706        0.6912869794
 C          0.2798133077       -4.7954260399        0.6849345892
 H         -0.1356205026       -5.6516114296        0.1485889590
 H         -0.0777257324       -4.8427992198        1.7166837491
 C         -0.2748440216       -3.5122363196        0.0700106092
 H          0.0227496287       -2.6477694898        0.6691189994
 H         -1.3661802917       -3.5666147891        0.1274539291
 C          0.1057133987       -3.2659225496       -1.3887905907
 H         -0.4702041709       -2.4032805193       -1.7360328307
 H         -0.1808758016       -4.1276158294       -1.9951569308
 C          1.5911612588       -2.9578606502       -1.6437398104
 H          2.1786973484       -3.8698192805       -1.7125922805
 H          1.6667863692       -2.4429058801       -2.6060443204
 H          2.0490688972       -5.8036819408        1.3054821193
 H          2.1703715877       -5.1400887606       -0.3092026006
 H          2.1803350580       -3.5749162809        2.3134456796
 H          3.6074588980       -4.0229068615        1.3985605297
 O          3.0337035191       -1.4932546312        1.5195009499
 C          3.1666799897       -0.1541343912        1.2107608501
 O          3.6219909799        0.5425373784        2.1405626702
 O          1.8772011401       -0.2675424703       -2.1676870101
 C          2.9261280608        1.7848536890       -0.2902039397
 C          1.6370114911        2.4322935996        0.1475974302
 C          1.6091529614        3.4581035895        1.0834546503
 C          0.4026662616        3.9634042100        1.5396631102
 C         -0.7978217086        3.4497832706        1.0815295900
 C         -0.7764358289        2.4324646007        0.1377059099
 C          0.4297706109        1.9416331602       -0.3310625900
 H          0.4351214306        1.1449968702       -1.0610372201
 N         -1.9989435792        1.8532731413       -0.2996662204
 S         -2.5931609998        0.7983298414        0.8903982194
 O         -3.0570054796        1.5985221015        1.9953711395
 O         -1.6015678103       -0.2078959091        1.2051132094
 C         -3.9754131100        0.0625248721        0.0402480192
 C         -5.1998778597        0.7014406127        0.0656266691
 C         -6.2580136799        0.1455170432       -0.6357931111
 C         -6.0736252703       -1.0296708768       -1.3489740912
 C         -4.8377143006       -1.6588030773       -1.3656050011
 C         -3.7756266004       -1.1078348479       -0.6662955509
 H         -2.7987820307       -1.5658559383       -0.6432007109
 H         -4.6957476209       -2.5726001073       -1.9199223512
 H         -6.8983690904       -1.4600355463       -1.8947198814
 H         -7.2209203497        0.6300281537       -0.6248029612
 H         -5.2954750394        1.6089671726        0.6381436192
 H         -1.8370122393        1.2986029113       -1.1330066304
 H         -1.7436290285        3.8021371509        1.4592040799
 H          0.3977931318        4.7541837199        2.2745095603
 H          2.5402752515        3.8389312690        1.4774230805
 H          3.7175705109        2.1208826886        0.3981557504
 C          3.3542238812        2.1602336390       -1.7010464696
 C          2.4638211616        2.8682065395       -2.6736180897
 C          3.6052034519        3.6002987989       -2.0390058294
 H          4.4650624721        3.8485825086       -2.6422095093
 H          3.3673159321        4.3334759189       -1.2828617894
 H          2.5374288616        2.5858949396       -3.7126341297
 H          1.4622986217        3.1199995099       -2.3617570598
 H          4.0422586409        1.4347789187       -2.1216826796
