  62
        -98.93946837
 C         -2.6434256783       -1.2297956198        0.2428284870
 C         -2.4728403795       -0.1934927279       -0.7092136180
 C         -3.6187700473        0.7160097184       -0.8774785563
 C         -4.7349946734        0.5220352647       -0.1538707016
 C         -5.9453192267        1.4085231850       -0.1851335941
 C         -5.8490813323        2.5132827412        0.8766639661
 C         -4.5159243782        3.2617077900        0.8722668161
 H         -3.7193031709        2.5750730245        1.1683067589
 H         -4.5753817290        4.0345268694        1.6417410917
 C         -4.1535377824        3.9065550168       -0.4728300566
 H         -3.7885582192        4.9190640527       -0.2881537303
 H         -5.0455307312        3.9923043170       -1.0945472555
 C         -3.0600611022        3.1749326339       -1.2535229963
 H         -2.1966086158        3.0047431876       -0.6052022906
 H         -2.7333052088        3.8243892005       -2.0699778351
 C         -3.4679550625        1.8321525025       -1.8724458680
 H         -2.6670538277        1.5232583477       -2.5506263932
 H         -4.3831392969        1.9568949621       -2.4548089889
 H         -5.9831159302        2.0592702710        1.8613102742
 H         -6.6653768153        3.2195677109        0.7146216592
 H         -6.8259623736        0.7969504459        0.0184624654
 H         -6.0419507004        1.8489396906       -1.1755537985
 O         -4.8661910469       -0.4893535176        0.7424107268
 C         -3.8229502268       -1.3682050817        0.9801689539
 O         -4.0636823165       -2.2179682778        1.8611039925
 O         -1.4313528264       -0.0220338836       -1.3923919153
 C         -1.5310473249       -2.2124967156        0.5718063272
 C         -0.2391703598       -1.4625165437        0.7822415748
 C         -0.1033315236       -0.6693704509        1.9181244437
 C          1.0537051856        0.0517961958        2.1420847106
 C          2.0978335476        0.0034940836        1.2349690729
 C          1.9723980749       -0.7833434201        0.0985772512
 C          0.8130797750       -1.5185758406       -0.1166310364
 H          0.7192424095       -2.1094013002       -1.0145308071
 N          3.0121650503       -0.8132436088       -0.8418920054
 S          4.5985887702       -0.9501601107       -0.3318415078
 O          5.3144028038       -1.4895300232       -1.4676351949
 O          4.6976314379       -1.6984688433        0.9002795334
 C          5.1177245731        0.7326431959       -0.0672859928
 C          5.7392356279        1.0821493981        1.1154840137
 C          6.1508591970        2.3937222379        1.2947259376
 C          5.9361692810        3.3272555964        0.2925421612
 C          5.3123984525        2.9597039126       -0.8904917171
 C          4.8997496835        1.6500424007       -1.0763912939
 H          4.4115972818        1.3264906657       -1.9806265093
 H          5.1455127330        3.6886631763       -1.6671983421
 H          6.2560524140        4.3475325192        0.4341613677
 H          6.6358574296        2.6814779921        2.2136822451
 H          5.8792690012        0.3243575532        1.8699375009
 H          2.8232175919       -1.3797000985       -1.6550087951
 H          3.0010458986        0.5679740625        1.4000013156
 H          1.1434005858        0.6625097296        3.0278230732
 H         -0.9239511343       -0.6220471167        2.6217409840
 H         -1.8227557703       -2.6548511511        1.5384404996
 C         -1.4004309678       -3.3708129705       -0.4057493469
 C         -2.6174463010       -3.9739193818       -1.0396406078
 C         -1.6279103890       -3.2262009156       -1.8792788839
 H         -0.9977512163       -3.7924280507       -2.5503276504
 H         -1.8994586017       -2.2524428369       -2.2541679142
 H         -2.6694008819       -5.0481039831       -1.1346391914
 H         -3.5693083277       -3.5072908347       -0.8311328917
 H         -0.6235093645       -4.0659045482       -0.0996923123
