  62
        -98.93367442
 C          2.3995997009        1.1037750389        0.3245033546
 C          2.4430863965       -0.1266937753        1.0264799696
 C          3.5726986914       -1.0338036501        0.7463424153
 C          4.5060702219       -0.6440053957       -0.1414365774
 C          5.7285411112       -1.3894124549       -0.6084405869
 C          5.3970034024       -2.5143230510       -1.6007782886
 C          4.2080186283       -3.3858465402       -1.2059195300
 H          3.3207993545       -2.7581480866       -1.1013255935
 H          4.0172752247       -4.0801839724       -2.0285252461
 C          4.3996098669       -4.2097961176        0.0652822977
 H          5.2772295896       -4.8495002436       -0.0509236088
 H          3.5256880786       -4.8588949916        0.1640553900
 C          4.5450114610       -3.4142406900        1.3648729010
 H          5.5476584764       -3.0085160000        1.4699284109
 H          4.4057644430       -4.1158071879        2.1925361327
 C          3.5113283497       -2.3081751992        1.5534933464
 H          2.5073846061       -2.7200186553        1.3951526230
 H          3.5260999620       -1.9904090177        2.6032361245
 H          5.1687983719       -2.0573313114       -2.5666742389
 H          6.2839403271       -3.1382844177       -1.7229911787
 H          6.3650320034       -0.6583090459       -1.1116397461
 H          6.2782888503       -1.7762318830        0.2443557165
 O          4.4274106528        0.5503745127       -0.7908040932
 C          3.3926938543        1.4463657576       -0.5927816831
 O          3.4954468307        2.4810908537       -1.2801208498
 O          1.5696914837       -0.4623604408        1.8739181946
 C          1.2309048879        2.0265927801        0.6253246061
 C          0.1641755550        1.9287800130       -0.4397527984
 C          0.3774856043        2.3980085619       -1.7320559481
 C         -0.6199587835        2.2962909876       -2.6841054457
 C         -1.8423633629        1.7294475211       -2.3699692297
 C         -2.0680430731        1.2621504909       -1.0801859696
 C         -1.0648272299        1.3650749129       -0.1263592753
 H         -1.2431856471        0.9813720926        0.8672099953
 N         -3.3203761721        0.7288792135       -0.7291336270
 S         -3.4103205225       -0.5279916301        0.3937641351
 O         -3.2290019422        0.0148402642        1.7160597874
 O         -2.5297718992       -1.6077708832        0.0060466822
 C         -5.1148797157       -1.0052531536        0.1766347023
 C         -5.4249057060       -2.1287793265       -0.5655042042
 C         -6.7573772180       -2.4661521869       -0.7462144102
 C         -7.7512659502       -1.6768267716       -0.1877368186
 C         -7.4244978110       -0.5521179362        0.5556023685
 C         -6.0946601397       -0.2104598328        0.7416773845
 H         -5.7921822713        0.6476365417        1.3187827425
 H         -8.1998589120        0.0576620783        0.9904780567
 H         -8.7870977471       -1.9412211004       -0.3303597484
 H         -7.0142562125       -3.3417135866       -1.3204073558
 H         -4.6182659171       -2.7159434149       -0.9744402068
 H         -3.8960866386        0.5310692575       -1.5368527680
 H         -2.6184021944        1.6518409244       -3.1163492414
 H         -0.4414131195        2.6589524946       -3.6852240785
 H          1.3366821667        2.8214654056       -1.9858927912
 H          0.7973360831        1.6408703767        1.5587375243
 C          1.6436077691        3.4685091547        0.8493253395
 C          0.7135522231        4.3769235212        1.5937969592
 C          1.9916578628        3.9248215997        2.2327004808
 H          2.7919410848        4.6395254054        2.3523571254
 H          1.9343011348        3.1959001301        3.0283471378
 H          0.6328376090        5.4047596211        1.2755075255
 H         -0.2113467585        3.9530614129        1.9562028369
 H          2.2128295390        3.8876090885        0.0303155011
