  62
        -98.93805495
 C          2.6251385046        1.0101798775        0.5362210459
 C          2.8465131861       -0.1979809061        1.2484449975
 C          4.0993097376       -0.9073480175        0.9643815017
 C          4.9592172660       -0.3839411679        0.0719743892
 C          6.2538551470       -1.0163468773       -0.3476492944
 C          6.0610236499       -1.9182132713       -1.5746233262
 C          4.8949132376       -2.8979218557       -1.4430885320
 H          3.9585409298       -2.3356874953       -1.4110732789
 H          4.8740953643       -3.5025652391       -2.3524266316
 C          4.9751101481       -3.8193692785       -0.2178447976
 H          4.7308145891       -4.8371095458       -0.5294213742
 H          5.9951663046       -3.8349637892        0.1677293259
 C          4.0110996044       -3.4566238052        0.9134194712
 H          3.0007145566       -3.3450919455        0.5116308428
 H          3.9916105338       -4.2884914667        1.6225647877
 C          4.3575792073       -2.1892050362        1.7050289371
 H          5.3954774132       -2.2374307548        2.0407247155
 H          3.7114131901       -2.1609787244        2.5871982409
 H          5.8783736346       -1.2841854225       -2.4453541278
 H          6.9863290692       -2.4715218280       -1.7452201456
 H          6.9584726105       -0.2218076735       -0.5989947413
 H          6.6546639798       -1.5948710275        0.4824454690
 O          4.7183905647        0.7746718823       -0.5884193110
 C          3.5472493716        1.4942237119       -0.3924536375
 O          3.4771713919        2.5214033990       -1.0946200019
 O          2.0317095278       -0.6564015418        2.0943255171
 C          1.3288818354        1.7444770984        0.8356097901
 C          0.2788365514        1.4338006293       -0.2053252090
 C          0.3904302604        1.8934373594       -1.5132778134
 C         -0.5891257958        1.5969141452       -2.4436153772
 C         -1.6947616317        0.8417140643       -2.0938976449
 C         -1.8158171973        0.3772822572       -0.7912699334
 C         -0.8324357277        0.6796327003        0.1432041196
 H         -0.9215855845        0.3063435113        1.1547290828
 N         -2.9255504206       -0.4073188863       -0.4316566670
 S         -4.4349985026        0.0629088513       -1.0288935205
 O         -4.5837855657       -0.4708247561       -2.3597891114
 O         -4.5937554780        1.4939411381       -0.9011865143
 C         -5.5310754707       -0.7868435702        0.0895588455
 C         -5.8196540096       -2.1184612586       -0.1417162145
 C         -6.6575326662       -2.7839275178        0.7389167384
 C         -7.1891537920       -2.1112725296        1.8293104748
 C         -6.8906764852       -0.7747083662        2.0477630368
 C         -6.0524232623       -0.1032948088        1.1716935856
 H         -5.8011459170        0.9378830203        1.2964342117
 H         -7.3076482021       -0.2539495564        2.8947378383
 H         -7.8427261989       -2.6311077229        2.5118974754
 H         -6.8944196926       -3.8222723397        0.5717904023
 H         -5.3918582769       -2.5971753881       -1.0070637627
 H         -2.9601120124       -0.5920430439        0.5614701845
 H         -2.4666355669        0.6111570647       -2.8107514555
 H         -0.4917957575        1.9591438736       -3.4563559200
 H          1.2576989222        2.4694175135       -1.7968422799
 H          0.9822913320        1.3252419523        1.7900479910
 C          1.5024053102        3.2401790234        1.0092532549
 C          0.4480118831        4.0086966831        1.7457996716
 C          1.7920206881        3.7904801979        2.3720089691
 H          2.4669144281        4.6289535938        2.4550519968
 H          1.8660231291        3.0883459895        3.1897176186
 H          0.1955485165        4.9984562921        1.3977961318
 H         -0.3914678298        3.4548461973        2.1384788608
 H          1.9816955035        3.7221639015        0.1678589691
