  62
        -98.94454111
 C         -1.6996978904       -1.3353487990        0.3404073918
 C         -1.6847142003       -0.3353084500       -0.6623222893
 C         -3.0031627503        0.1011270596       -1.1476586697
 C         -4.1142895904       -0.4743292198       -0.6533870090
 C         -5.5175934803       -0.0909555801       -1.0222024893
 C         -6.0659559002        0.9831914209       -0.0726350204
 C         -5.1208576301        2.1675768511        0.1306380983
 H         -5.6242688800        2.8761122718        0.7920528876
 H         -4.2233394601        1.8251869616        0.6513802486
 C         -4.7106989401        2.8814295597       -1.1650118125
 H         -4.7796335200        3.9598671599       -1.0073685936
 H         -5.4065322702        2.6261112489       -1.9651106222
 C         -3.2809091602        2.5907935991       -1.6260640522
 H         -2.5853041301        2.7578428099       -0.7988579925
 H         -3.0257755702        3.3061391683       -2.4128197530
 C         -3.0317984903        1.1852237385       -2.1879110308
 H         -3.7700322604        0.9617100377       -2.9608598305
 H         -2.0394028703        1.1860042779       -2.6484173008
 H         -7.0188856302        1.3399760806       -0.4675181907
 H         -6.2518907402        0.5231417120        0.9005901101
 H         -5.5322240204        0.2733200288       -2.0474221197
 H         -6.1465657404       -0.9799797600       -0.9522759384
 O         -4.0861090504       -1.4514251888        0.2884009120
 C         -2.8861779304       -1.8870548484        0.8252759424
 O         -3.0047855204       -2.7579697174        1.7107045733
 H          2.0713344597       -0.6601521790        0.5569463709
 C          1.5097127698       -0.1945708682        1.3467017204
 C          0.2552368598       -0.6746543677        1.6827788510
 C         -0.4349298901       -0.0627686266        2.7270470904
 C          0.1184394700        1.0021017641        3.4103407792
 C          1.3631048100        1.4938521236        3.0530941586
 C          2.0570182899        0.8957137725        2.0106085492
 N          3.3283564399        1.3560434220        1.6152623787
 S          3.4983912699        1.8633355203        0.0167384581
 O          4.7182641599        2.6451989302        0.0222656573
 O          2.3146995899        2.5514689399       -0.4423598725
 C          3.7787848897        0.3724213093       -0.9118065303
 C          4.9571413997       -0.3134997205       -0.6901920797
 C          5.1977547695       -1.4770605613       -1.4026057585
 C          4.2630008094       -1.9277564822       -2.3230623479
 C          3.0878587495       -1.2232834523       -2.5366566786
 C          2.8370170696       -0.0600893016       -1.8246857098
 H          1.9190495396        0.4963334584       -1.9381381603
 H          2.3581614794       -1.5765683130       -3.2483301482
 H          4.4488254093       -2.8344803828       -2.8773845270
 H          6.1090847495       -2.0292101012       -1.2386601979
 H          5.6584432097        0.0778364701        0.0277308599
 H          3.7119099100        2.0620129626        2.2292763479
 H          1.7904345201        2.3367336942        3.5758558977
 H         -0.4262757599        1.4626956150        4.2211050288
 H         -1.4140876502       -0.4376220462        2.9945372708
 C         -0.3992581804       -1.8249368684        0.9559279722
 H         -0.6838682904       -2.5797923476        1.7027275830
 C          0.4846076095       -2.4727844296       -0.0880118872
 C          1.5705634395       -3.4169082292        0.3296668338
 C          0.3466093094       -3.9390303998       -0.3596577856
 H          0.4341670393       -4.2838930409       -1.3787621653
 H         -0.3774507806       -4.4877771892        0.2251527350
 H          1.6802037295       -3.6151179281        1.3850233240
 H          2.5016609394       -3.4011718699       -0.2166855363
 H          0.6729969195       -1.8257559705       -0.9357676978
 O         -0.6317055903        0.1655603294       -1.1358807299
