  62
        -98.93132355
 C          2.4288332265        0.9319760061        0.7256479655
 C          3.4881082715        0.8771770859       -0.2114206170
 C          4.6165755904       -0.0096979982        0.1301781021
 C          4.5879172661       -0.7180175942        1.2709751799
 C          5.6382036688       -1.6427596261        1.8338901868
 C          6.3363248196       -2.6022789689        0.8607903710
 C          5.4577667958       -3.1106752592       -0.2914900416
 H          5.5263952701       -4.1992281693       -0.3362795737
 H          4.4122401021       -2.8581338987       -0.1058331639
 C          5.8809045632       -2.5576422113       -1.6544809190
 H          5.4853924567       -3.2106342685       -2.4362785253
 H          6.9705701415       -2.5894428712       -1.7226157659
 C          5.4015164496       -1.1401477919       -1.9643884589
 H          4.3192838410       -1.1412670534       -2.1215027539
 H          5.8603844313       -0.8284044097       -2.9058104611
 C          5.7160443765       -0.0860445954       -0.8901608243
 H          6.6823797056       -0.2705247998       -0.4274845616
 H          5.7441065344        0.8920104371       -1.3779099561
 H          7.2216784113       -2.1220473565        0.4464985550
 H          6.6871910444       -3.4497518105        1.4521756351
 H          6.3936168844       -1.0314173591        2.3363169226
 H          5.1235172280       -2.2173800970        2.6077600715
 O          3.5373519468       -0.6502029269        2.1373174104
 C          2.4459057309        0.1593720242        1.8896567807
 O          1.5650953036        0.1124923163        2.7729391081
 H         -1.1495581431        0.6504607346        1.1621700980
 C         -0.9552492244        0.5953484770        0.0990198373
 C          0.2201198329        1.1360570525       -0.4030140680
 C          0.4674159718        1.0432949088       -1.7684089494
 C         -0.4431402229        0.4201596690       -2.6025434676
 C         -1.6124644245       -0.1213416549       -2.0985576912
 C         -1.8680591071       -0.0364058105       -0.7365570970
 N         -3.0437261515       -0.6036192407       -0.2123992434
 S         -4.4727942226       -0.3457801385       -1.0773078141
 O         -4.5529928884       -1.3307378987       -2.1269293607
 O         -4.5523773561        1.0342882129       -1.5000073776
 C         -5.7015983924       -0.6871758136        0.1666933717
 C         -6.0513190067       -2.0006083672        0.4166332758
 C         -6.9934718379       -2.2669189277        1.3973317167
 C         -7.5658894511       -1.2222280849        2.1079360285
 C         -7.2051505685        0.0907734337        1.8451332775
 C         -6.2628425735        0.3642770983        0.8662544470
 H         -5.9597485091        1.3697056043        0.6213004647
 H         -7.6542369409        0.9008170378        2.3969767963
 H         -8.3004802371       -1.4322819533        2.8692219028
 H         -7.2791333472       -3.2858753116        1.6030481673
 H         -5.5876498762       -2.7788111650       -0.1668149800
 H         -3.1635345799       -0.3962315357        0.7695922679
 H         -2.3316028694       -0.6036553643       -2.7412401322
 H         -0.2403404800        0.3537988799       -3.6611886613
 H          1.3868369379        1.4440969842       -2.1656226667
 C          1.1953088680        1.8023029889        0.5389600022
 H          0.7205646459        1.8500170392        1.5283260055
 C          1.5217894974        3.2163088949        0.1012908193
 C          0.5044034110        4.2933085476        0.3221720550
 C          1.7585463099        4.2666142461        1.1423941021
 H          2.5145525711        5.0144713533        0.9561851697
 H          1.6847572069        3.9697816906        2.1787627485
 H         -0.4221199862        4.0151997520        0.8019218524
 H          0.3957865598        5.0607350581       -0.4286714561
 H          2.1218790727        3.2656023116       -0.7968495380
 O          3.5249649861        1.5370742576       -1.2824801856
