  62
        -98.94574698
 C         -1.6773242915       -1.4960211613       -0.3968565956
 C         -1.4986902307       -0.2643830006       -1.0739575334
 C         -2.6796794269        0.6089114565       -1.1330465872
 C         -3.8504582703        0.2015144333       -0.6131294719
 C         -5.1459918191        0.9667001225       -0.6289133430
 C         -5.2884100421        1.9787974585        0.5156952125
 C         -4.4085633722        3.2237171863        0.3947035606
 H         -4.5529927039        3.6767668228       -0.5865999357
 H         -4.7610484219        3.9400698285        1.1395209295
 C         -2.9131130273        2.9655998102        0.6287726527
 H         -2.5076793976        3.7287352388        1.2973026802
 H         -2.7799981766        2.0049216108        1.1325917281
 C         -2.0548766138        2.9785423363       -0.6365291032
 H         -2.0580675168        3.9817439514       -1.0699686057
 H         -1.0274653743        2.7401059679       -0.3466552532
 C         -2.5024432752        1.9795429631       -1.7122061325
 H         -1.7217823982        1.9237107096       -2.4746048542
 H         -3.4259662225        2.3200176818       -2.1809350236
 H         -6.3327416797        2.2985885819        0.5408277801
 H         -5.0724310034        1.4721407362        1.4592622895
 H         -5.2566968491        1.4793312118       -1.5848053715
 H         -5.9442470727        0.2271530590       -0.5352703622
 O         -3.9965932785       -1.0106648858       -0.0149481743
 C         -2.9150921708       -1.8605806860        0.1423598752
 O         -3.1836506418       -2.9130561912        0.7571420959
 O         -0.4298128981        0.1037079901       -1.6251545306
 C         -0.5483762236       -2.4880491366       -0.1535798211
 C          0.2340721009       -2.0477924585        1.0620488331
 C          0.0701393398       -2.7108386241        2.2732553212
 C          0.7543454159       -2.2935847813        3.4005532763
 C          1.6096373831       -1.2091304679        3.3398674486
 C          1.7797499910       -0.5357938509        2.1335950286
 C          1.0988333876       -0.9630145272        1.0023537554
 H          1.2092214461       -0.4208548061        0.0792184813
 N          2.6665085237        0.5420987667        2.0532705413
 S          2.5015489332        1.7897340061        0.9495428037
 O          3.3020235206        2.8546492589        1.5214291350
 O          1.1182356246        2.1098775731        0.6982775191
 C          3.3341861539        1.1762428546       -0.4987229691
 C          2.6513136370        0.9579880129       -1.6770819667
 C          3.3512415526        0.4686766104       -2.7704450764
 C          4.7092846989        0.2129373057       -2.6687046039
 C          5.3812430803        0.4448774453       -1.4774211092
 C          4.6891732974        0.9313795000       -0.3814129995
 H          5.1729433863        1.1342512528        0.5595187606
 H          6.4381761273        0.2463069875       -1.4011616594
 H          5.2462340026       -0.1692258575       -3.5227745122
 H          2.8245557962        0.2863912008       -3.6938813333
 H          1.5895563287        1.1451674694       -1.7227537729
 H          3.0503866944        0.8542919657        2.9322137488
 H          2.1410885870       -0.8791126626        4.2196564965
 H          0.6164481302       -2.8139565791        4.3364194225
 H         -0.6161308653       -3.5436300048        2.3279465132
 H         -1.0399893976       -3.4383248722        0.0959570768
 C          0.3455572590       -2.7143969477       -1.3554836873
 C          1.2038356080       -3.9418654078       -1.3932184258
 C          0.0234957574       -3.8235174524       -2.3091445627
 H          0.1984773691       -3.6631334864       -3.3622734257
 H         -0.8480927130       -4.4269737182       -2.0996420395
 H          2.1934968334       -3.8638686957       -1.8159630895
 H          1.1320214664       -4.6273765732       -0.5621796082
 H          0.7500888164       -1.8044655245       -1.7762860616
