  62
        -98.93792497
 C         -2.4769044366       -0.5713224812        0.0346535074
 C         -3.0083386500        0.5743962588        0.6812917463
 C         -4.2169040239        1.1607216808        0.0898217689
 C         -4.7306141104        0.6122270897       -1.0259910984
 C         -5.9863758995        1.0694174413       -1.7087706524
 C         -7.2126350152        0.3126844135       -1.1795113849
 C         -7.3029778904        0.2740829703        0.3460471687
 H         -8.2216789745       -0.2571016424        0.6043871454
 H         -6.4705778134       -0.3152050274        0.7377198924
 C         -7.3048141027        1.6547674789        1.0170629312
 H         -8.0810750862        1.6694732100        1.7850676532
 H         -7.5591309992        2.4221021061        0.2850755826
 C         -5.9904738335        2.0277504187        1.7056832817
 H         -6.1704847933        2.9094866446        2.3265216966
 H         -5.6827228182        1.2172581018        2.3713751870
 C         -4.8173441597        2.3567853081        0.7734479344
 H         -5.1282543155        3.1040762235        0.0405864248
 H         -4.0174128024        2.7857168833        1.3840112218
 H         -7.1695389367       -0.7156173759       -1.5457868736
 H         -8.1102115568        0.7812229688       -1.5871692815
 H         -6.1102567475        2.1390282670       -1.5512660873
 H         -5.8857689426        0.8773543619       -2.7782522199
 O         -4.1797427551       -0.4648152886       -1.6367863078
 C         -3.0495497225       -1.0944861377       -1.1261493222
 O         -2.6824005437       -2.0750034829       -1.7968544068
 H          0.8684878832       -0.1927302218        1.9824689757
 C          1.0330015539       -0.2201001254        0.9131537998
 C          0.0273414775       -0.6921447467        0.0818326428
 C          0.2489777261       -0.7023381163       -1.2915831025
 C          1.4524959037       -0.2594077204       -1.8100735556
 C          2.4557517962        0.2020252144       -0.9755910857
 C          2.2424532101        0.2240527771        0.3955990343
 N          3.2650613290        0.6932155039        1.2443302937
 S          4.7084441999       -0.1736610447        1.2146666344
 O          4.4737110437       -1.5608584119        0.8855646194
 O          5.3354598027        0.0877279199        2.4916970094
 C          5.6568692684        0.6071740169       -0.0725883108
 C          6.0698462226       -0.1320534361       -1.1636194200
 C          6.8161290860        0.4917985770       -2.1513103298
 C          7.1345868015        1.8358304136       -2.0301470643
 C          6.7138061883        2.5634217021       -0.9266060982
 C          5.9682196663        1.9458195032        0.0648000412
 H          5.6263117873        2.4729430724        0.9398087689
 H          6.9643032206        3.6081315870       -0.8362825838
 H          7.7149767912        2.3189271922       -2.8002991037
 H          7.1445069397       -0.0720987513       -3.0096325668
 H          5.7938281295       -1.1730717650       -1.2168265620
 H          2.9631743433        0.8199793590        2.2004680544
 H          3.3943548028        0.5476082366       -1.3771535625
 H          1.6115328770       -0.2755916615       -2.8776370697
 H         -0.5279888678       -1.0701874181       -1.9445123996
 C         -1.2575550791       -1.2054861380        0.6791572305
 H         -1.2904621093       -0.8603748851        1.7253794584
 C         -1.3201378797       -2.7270333559        0.7112018027
 C         -0.4593520191       -3.6194361868       -0.1256577116
 C         -0.2117846431       -3.5136268138        1.3473773151
 H         -0.4660042131       -4.3501956998        1.9805414463
 H          0.6682856507       -2.9725621881        1.6639859985
 H          0.2549128848       -3.1651459875       -0.7936031163
 H         -0.9073981069       -4.5193949777       -0.5179366516
 H         -2.3298951978       -3.0802610593        0.8969516483
 O         -2.4952735840        1.0769770627        1.7181775722
