  62
        -98.94492234
 C         -1.9677754310       -0.8505695565        0.0695978659
 C         -2.2567557522        0.1163148473        1.0597087684
 C         -2.3306084037        1.5077670431        0.5981659480
 C         -2.0900469783        1.7831158317       -0.6969936554
 C         -2.1567267909        3.1528073829       -1.3077386647
 C         -3.5599371178        3.4559827111       -1.8515813626
 C         -4.6831154383        3.1581888813       -0.8583778242
 H         -5.6238299979        3.4361999793       -1.3382001026
 H         -4.7192344234        2.0818340401       -0.6759512460
 C         -4.5552950338        3.8943386964        0.4824752367
 H         -3.8665945057        4.7335888201        0.3800616357
 H         -5.5307686027        4.3046019233        0.7515741832
 C         -4.1065724031        3.0124511307        1.6491805790
 H         -4.7359287598        2.1203894450        1.6975192083
 H         -4.2578511884        3.5712243484        2.5765124107
 C         -2.6396162269        2.5638892442        1.6220591859
 H         -1.9886867996        3.4307084379        1.4871929076
 H         -2.4088407450        2.1136808013        2.5923320490
 H         -3.5969096488        4.5073400454       -2.1423515171
 H         -3.7219317172        2.8489269427       -2.7451226850
 H         -1.8766531570        3.8902778953       -0.5577115065
 H         -1.4372821161        3.1935615671       -2.1275305315
 O         -1.8044032233        0.8289661254       -1.6188992241
 C         -1.7213554218       -0.5063512756       -1.2597696828
 O         -1.4427194744       -1.2764415104       -2.1993797451
 H          0.4376271624       -0.9470025126        0.8994927880
 C          0.6396901048       -1.9023037084        0.4355670402
 C         -0.4118299515       -2.7640930733        0.1495015687
 C         -0.1225267833       -3.9931724278       -0.4285500606
 C          1.1836355185       -4.3267993089       -0.7441059268
 C          2.2200312532       -3.4438613169       -0.5052889986
 C          1.9425998155       -2.2196187815        0.0936300149
 N          2.9695410688       -1.2998163304        0.3743825016
 S          2.6085207106        0.3464305964        0.2463553398
 O          1.9999783905        0.7840523854        1.4788947450
 O          1.8700209093        0.6132067394       -0.9674476713
 C          4.2571121620        1.0181157450        0.1301740353
 C          4.7652601995        1.3649514059       -1.1072051946
 C          6.0598330396        1.8543813560       -1.1871946144
 C          6.8209705706        1.9840966888       -0.0353001638
 C          6.2969335907        1.6323931210        1.1999787673
 C          5.0029707798        1.1441053006        1.2871779236
 H          4.5484485460        0.8667942729        2.2238933030
 H          6.8905173499        1.7371761260        2.0936932920
 H          7.8279956180        2.3645662738       -0.1005930664
 H          6.4679036642        2.1317307532       -2.1457260104
 H          4.1325859951        1.2524985575       -1.9732918785
 H          3.8323118880       -1.5235530290       -0.1036729713
 H          3.2336112892       -3.6951765150       -0.7783284645
 H          1.3942469996       -5.2816105723       -1.2015508705
 H         -0.9208517362       -4.6835317589       -0.6466117490
 C         -1.8111474925       -2.3037138845        0.4791609106
 H         -1.9313966156       -2.3155268529        1.5733812919
 C         -2.8938764104       -3.1607804131       -0.1422076335
 C         -3.3835163583       -4.3906718258        0.5608745129
 C         -4.2544667284       -3.1739692471        0.4855925880
 H         -5.1197130988       -3.1946469660       -0.1597701699
 H         -4.3907030211       -2.5836807982        1.3801367062
 H         -3.6552894682       -5.2500635632       -0.0332080810
 H         -2.9356316100       -4.6333303277        1.5126080358
 H         -2.8409815643       -3.1719078173       -1.2252016544
 O         -2.4404601142       -0.1724682674        2.2749484541
