  62
        -98.93881634
 C         -2.5847529699       -0.1009723906       -0.4274988995
 C         -2.2325961595       -0.7581737000        0.7745581107
 C         -1.7659877594       -2.1501961500        0.6499130113
 C         -1.6938579895       -2.7143861806       -0.5677528585
 C         -1.3014717494       -4.1216973007       -0.9491097679
 C         -0.1601980592       -4.7928443502       -0.1791910478
 C          1.0112975708       -3.8681699899        0.1810506115
 H          1.9435719208       -4.3309059799       -0.1490951284
 H          0.9201859405       -2.9130675101       -0.3406755289
 C          1.1202291410       -3.5996117391        1.6829844614
 H          0.9549890413       -4.5319866889        2.2283031119
 H          2.1356859810       -3.2624340789        1.9030907110
 C          0.1633392310       -2.5304799890        2.2043808111
 H          0.4187752208       -1.5681143692        1.7513607406
 H          0.3107656312       -2.4342404485        3.2830583410
 C         -1.3268780790       -2.7994626194        1.9311394115
 H         -1.9093751089       -2.3187044491        2.7219056614
 H         -1.5444510889       -3.8649705194        1.9403802820
 H          0.1999683908       -5.6086070704       -0.8091776775
 H         -0.5508976789       -5.2477686798        0.7299435225
 H         -2.1964592993       -4.7483144008       -0.8772564574
 H         -1.0378963596       -4.0622784112       -2.0084974080
 O         -2.0502268098       -2.0420346312       -1.7022588787
 C         -2.4692890300       -0.7247308012       -1.6659036393
 O         -2.7158887003       -0.2298956018       -2.7877362394
 O         -2.3138411294       -0.2123719795        1.9062193905
 C         -2.9886111200        1.3612784693       -0.3970320801
 C         -1.8862281700        2.1790035898        0.2357774493
 C         -2.1213650200        3.2843156901        1.0427190188
 C         -1.0605311100        3.9816066005        1.5965453883
 C          0.2452705300        3.5843535406        1.3787977782
 C          0.4906945200        2.4748100302        0.5747896287
 C         -0.5705804500        1.8110279898       -0.0145101608
 H         -0.3709868600        0.9715338396       -0.6642145505
 N          1.8003450000        1.9983466803        0.3988732086
 S          2.1708607600        0.8048378499       -0.7220418409
 O          1.9601078796        1.2915696992       -2.0703147011
 O          1.4948606802       -0.4146236501       -0.3640730402
 C          3.9157852700        0.6375571003       -0.4012508911
 C          4.3157826904       -0.1763184192        0.6414152692
 C          5.6680057604       -0.2923730189        0.9208693290
 C          6.5928180302        0.4047707109        0.1574490485
 C          6.1769371899        1.2159772303       -0.8875504218
 C          4.8254952298        1.3363740400       -1.1716848916
 H          4.4562450696        1.9456935896       -1.9809731218
 H          6.8985247097        1.7535954902       -1.4812709222
 H          7.6447787602        0.3125101111        0.3766155583
 H          5.9947172507       -0.9248480985        1.7304438592
 H          3.5590385905       -0.7031413490        1.1997584996
 H          2.5140654799        2.7093787505        0.4631265682
 H          1.0678170000        4.1154218609        1.8319192778
 H         -1.2558802400        4.8424512808        2.2179014579
 H         -3.1336664000        3.5968447901        1.2413479088
 H         -3.0882126503        1.6725386988       -1.4485176503
 C         -4.3261411199        1.5318961995        0.2944263300
 C         -5.2737737002        2.6093440791       -0.1373736003
 C         -5.5751478100        1.1758711089       -0.4524670095
 H         -6.3736015199        0.6837554591        0.0820647908
 H         -5.4596420502        0.8385385085       -1.4726711494
 H         -5.8713114801        3.1022260794        0.6146536396
 H         -4.9668276304        3.2499445188       -0.9505133706
 H         -4.2811162697        1.2765981000        1.3468120202
