  62
        -98.93953586
 C          2.6241377672        1.2569242839        0.0708336619
 C          2.7648526563        0.2602790268       -0.9245143711
 C          4.1207007197       -0.2808896900       -1.0976053777
 C          5.1253327520        0.2009350758       -0.3432191821
 C          6.5391047793       -0.3015931903       -0.3753430700
 C          6.7520010891       -1.4210713909        0.6533529021
 C          5.6904627641       -2.5199802068        0.5995223115
 H          5.9596016229       -3.2689298088        1.3475967112
 H          4.7263676130       -2.1013560719        0.8980696195
 C          5.5447559336       -3.1957555285       -0.7710653033
 H          5.4850577786       -4.2761519150       -0.6235932494
 H          6.4304428902       -2.9998488084       -1.3765514476
 C          4.2955169524       -2.7835726410       -1.5522090822
 H          4.1773506317       -3.4731727215       -2.3923078055
 H          3.4127122296       -2.8897020317       -0.9160752865
 C          4.3066167474       -1.3609362752       -2.1257216590
 H          5.2244212978       -1.2000989585       -2.6947968753
 H          3.4567508941       -1.2724818882       -2.8087608879
 H          7.7387328423       -1.8579000826        0.4894012152
 H          6.7372697479       -0.9802333236        1.6528905189
 H          7.2053624355        0.5293342818       -0.1376557629
 H          6.7681265284       -0.6641966152       -1.3753974748
 O          4.9547559681        1.1789207701        0.5834091266
 C          3.7018761295        1.7178554650        0.8257662415
 O          3.6775736726        2.5849769210        1.7231769659
 O          1.8107796934       -0.1565168829       -1.6315264306
 C          1.2571947463        1.8547388392        0.3500311995
 C          0.2869780369        0.7603301623        0.7259885039
 C          0.6604478001       -0.1582330661        1.7038612834
 C         -0.1928124085       -1.1766598652        2.0812660116
 C         -1.4397452504       -1.3031965981        1.4942196690
 C         -1.8288782126       -0.3850808272        0.5296252802
 C         -0.9714432805        0.6451847497        0.1585826740
 H         -1.2892258997        1.3509244228       -0.5930508686
 N         -3.0872621681       -0.5111554347       -0.0836554566
 S         -4.4039930964       -0.9143436758        0.8931039815
 O         -4.3982940344       -0.1060481297        2.0921609688
 O         -4.4058243561       -2.3413216483        1.0972662530
 C         -5.7604594921       -0.4517588130       -0.1656100503
 C         -6.1656119175       -1.3324772972       -1.1506099185
 C         -7.2015360055       -0.9628418512       -1.9935772366
 C         -7.8106556452        0.2737466714       -1.8391297449
 C         -7.3936580165        1.1463090546       -0.8451537731
 C         -6.3572154572        0.7836711523        0.0006120046
 H         -6.0059155815        1.4261248076        0.7921510491
 H         -7.8712227659        2.1055209987       -0.7258733039
 H         -8.6173298443        0.5584865714       -2.4960279103
 H         -7.5304011156       -1.6389086923       -2.7662460526
 H         -5.6688899828       -2.2855116741       -1.2276801378
 H         -3.3002663192        0.2718184426       -0.6863758433
 H         -2.1147219350       -2.0950044935        1.7768077554
 H          0.1144941834       -1.8828026804        2.8386530475
 H          1.6356236836       -0.0632090248        2.1634484677
 H          1.3840103640        2.5101572848        1.2243503550
 C          0.8081133155        2.6951996341       -0.8272007973
 C         -0.1147557837        3.8574182521       -0.6186770210
 C          1.3268138843        4.0950078283       -0.9520087964
 H          1.5761897586        4.4671158574       -1.9343239602
 H          1.9839985746        4.4500073484       -0.1713604095
 H         -0.8542308686        4.0726913381       -1.3754468102
 H         -0.4413573638        4.0619801450        0.3898888583
 H          0.7095292545        2.1153781022       -1.7378280654
