  62
        -98.93817992
 C         -0.2236221535       -2.0899124501       -0.4316821529
 C          0.6895852107       -2.0629326513        0.6517840148
 C          2.0867006757       -1.7411157225        0.3049010057
 C          2.4176568659       -1.4551982029       -0.9655877272
 C          3.7817998114       -1.0832282826       -1.4802788709
 C          4.3477657195        0.2449263600       -0.9413749517
 C          5.2853701839        0.0833742959        0.2612764899
 H          5.6963861748       -0.9270023203        0.2557451891
 H          6.1296176975        0.7659166731        0.1443603244
 C          4.6687767106        0.3729310860        1.6334028012
 H          5.3542779867       -0.0123564985        2.3919801866
 H          4.5988410445        1.4541873786        1.7746125411
 C          3.2756689263       -0.2051864447        1.8925631158
 H          2.5154801063        0.4197427092        1.4171048256
 H          3.0751272959       -0.1351822002        2.9641699043
 C          3.0759292201       -1.6621227395        1.4313787597
 H          4.0264359984       -2.1062528972        1.1379673745
 H          2.6583998974       -2.2489437711        2.2525031228
 H          3.5258359985        0.9167781158       -0.6915043563
 H          4.9095216698        0.7080924529       -1.7538652014
 H          3.6798217535       -1.0184790425       -2.5652701522
 H          4.4787217283       -1.8943079357       -1.2590133974
 O          1.5094717161       -1.4880434225       -1.9784255899
 C          0.1824680427       -1.7994589554       -1.7376045352
 O         -0.5344761189       -1.7891258947       -2.7576213550
 O          0.3891803870       -2.2947131922        1.8518277919
 C         -1.7135403355       -2.3554841527       -0.2940956108
 C         -2.4726425752       -1.0560804804       -0.1461433207
 C         -3.6569610421       -0.8467941257       -0.8432513318
 C         -4.3522375927        0.3410632596       -0.7107381043
 C         -3.8671917595        1.3501743244        0.1010969224
 C         -2.6825492319        1.1528854525        0.8012155658
 C         -2.0021285759       -0.0513651057        0.6869285849
 H         -1.0950649459       -0.1962804473        1.2536742277
 N         -2.1614094814        2.1678915357        1.6230505115
 S         -0.5462247605        2.5792168377        1.4782781782
 O          0.2891659138        1.5624981272        2.0577507490
 O         -0.4594897610        3.8946605943        2.0759321968
 C         -0.2580840436        2.6974004461       -0.2768242245
 C         -0.6773695550        3.8354412765       -0.9381593989
 C         -0.4979944538        3.9178876576       -2.3090775834
 C          0.0883170511        2.8633799062       -2.9932191622
 C          0.5054490000        1.7283725813       -2.3156365443
 C          0.3299280524        1.6428264778       -0.9436307208
 H          0.6404541667        0.7729778894       -0.3847619452
 H          0.9520191294        0.9011381849       -2.8449964398
 H          0.2242049503        2.9228103807       -4.0614883792
 H         -0.8163882046        4.7999540450       -2.8408728626
 H         -1.1163401638        4.6372608512       -0.3668395984
 H         -2.7313437882        3.0013617755        1.6574369129
 H         -4.3987913019        2.2847263249        0.1954577646
 H         -5.2714903257        0.4898225325       -1.2559312124
 H         -4.0246672314       -1.6185615919       -1.5023470793
 H         -2.0266522523       -2.8099929995       -1.2450876938
 C         -2.0884894323       -3.3019217077        0.8287539648
 C         -3.3468741841       -4.1073459427        0.7171907004
 C         -2.0129101289       -4.7804922489        0.6019844596
 H         -1.6719717026       -5.4063506012        1.4126707999
 H         -1.6952241042       -5.1198291268       -0.3734201400
 H         -3.9305361446       -4.2716229535        1.6098110142
 H         -3.9365880268       -4.0008031085       -0.1804153888
 H         -1.8101070288       -2.9362724314        1.8082614786
