  62
        -98.93872939
 C          2.5690436548        1.3698623509        0.1482158865
 C          2.5264194111        0.3094802433       -0.7861471528
 C          3.5491948568       -0.7436886935       -0.6350834744
 C          4.4510834715       -0.6574277191        0.3601878299
 C          5.6229944728       -1.5434716055        0.7284907605
 C          5.7702591597       -2.9368219398        0.1233370068
 C          4.7099682143       -3.9429455755        0.5709080767
 H          4.8827494548       -4.1841183936        1.6227115499
 H          4.8422427340       -4.8602921160       -0.0066721587
 C          3.2612448140       -3.4787303112        0.4401510976
 H          3.0922581268       -2.6118746680        1.0825480861
 H          2.6164561824       -4.2806076373        0.8102189551
 C          2.8066666579       -3.1392565723       -0.9779648352
 H          1.7261138817       -2.9687855168       -0.9451092376
 H          2.9893207877       -3.9907962026       -1.6367377501
 C          3.4552559178       -1.8907380131       -1.5996291656
 H          2.8135217037       -1.5520097818       -2.4184298923
 H          4.4300403252       -2.1210964600       -2.0226668742
 H          6.7422730423       -3.3164660657        0.4496057981
 H          5.8049547613       -2.8748594427       -0.9602984302
 H          6.5196436168       -0.9635583811        0.4835287669
 H          5.6003907323       -1.6279248987        1.8195714084
 O          4.4512239130        0.3880804734        1.2385778541
 C          3.5165189835        1.4029057567        1.1723629394
 O          3.6336424153        2.2668682905        2.0638056576
 H         -0.4809215363        1.6379618427       -1.5165877945
 C         -0.7076355153        1.5135422429       -0.4698086612
 C          0.2068699535        1.9226984995        0.4872429642
 C         -0.0969075247        1.7182805730        1.8305863327
 C         -1.2889250705        1.1256682267        2.2017601302
 C         -2.1973952820        0.7120441449        1.2422267877
 C         -1.8942750041        0.8934060635       -0.0996838425
 N         -2.8011455629        0.4615669606       -1.0828755830
 S         -3.4442476884       -1.0832921460       -0.9435634604
 O         -2.5631612321       -1.9723038095       -0.2222656381
 O         -3.7910451136       -1.4727139247       -2.2932068347
 C         -4.9455075464       -0.8246530307       -0.0192261523
 C         -5.1786558956       -1.5439723806        1.1363531490
 C         -6.3578960514       -1.3299832367        1.8332727117
 C         -7.2789545061       -0.4061990997        1.3639759873
 C         -7.0315131979        0.3058787928        0.1997230123
 C         -5.8552752157        0.0958190694       -0.5018271015
 H         -5.6268627853        0.6247420715       -1.4118945255
 H         -7.7503349281        1.0231436404       -0.1623754470
 H         -8.1950089431       -0.2406687959        1.9087050300
 H         -6.5518903412       -1.8835052856        2.7379915828
 H         -4.4314649039       -2.2484641593        1.4661976519
 H         -2.4724182800        0.6222972802       -2.0245288583
 H         -3.1229037211        0.2369613230        1.5237266401
 H         -1.5129296596        0.9787496204        3.2475125326
 H          0.6241893192        2.0184276983        2.5786118870
 C          1.5514561085        2.5000047630        0.1179916393
 H          1.8532165563        3.1952611348        0.9124800532
 C          1.5640667149        3.2377024681       -1.2043166620
 C          0.8949632951        4.5747185080       -1.3028475103
 C          2.3899631577        4.4799559173       -1.3396580747
 H          2.8966571996        4.6608868502       -2.2758254964
 H          2.9459543793        4.8069235316       -0.4730846521
 H          0.4342534597        4.9665349411       -0.4087514085
 H          0.3733370677        4.8256135103       -2.2137638082
 H          1.5189107739        2.5815231039       -2.0644253311
 O          1.6879007073        0.2363615028       -1.7236498434
