  62
        -98.93625739
 C         -1.6943196947       -1.1880498319       -0.4845106719
 C         -1.9298557290        0.2057221226       -0.4159625323
 C         -3.3397238957        0.6234384469       -0.4856381578
 C         -4.2969201936       -0.3128396723       -0.6174730532
 C         -5.7766687617       -0.0524878546       -0.6201134906
 C         -6.2700976192        0.1934249563        0.8201324476
 C         -6.7933509507        1.6072016098        1.0746706030
 H         -7.7851336609        1.7041941224        0.6279677970
 H         -6.9060233244        1.7243788603        2.1546320616
 C         -5.9237911719        2.7478278871        0.5371431051
 H         -6.2738726705        3.6656972280        1.0143008501
 H         -6.0976078805        2.8682923947       -0.5331617489
 C         -4.4145543123        2.6123915472        0.7772447234
 H         -4.0204438425        3.6005758873        1.0229209263
 H         -4.2168491264        1.9702843579        1.6358791887
 C         -3.6155911405        2.1007904358       -0.4359592400
 H         -4.1142752067        2.4110093276       -1.3583105033
 H         -2.6258985183        2.5667356396       -0.4230716239
 H         -7.0663473147       -0.5136255821        1.0579519268
 H         -5.4466249272       -0.0196615188        1.5050847072
 H         -6.2609439921       -0.9333732417       -1.0420151731
 H         -5.9986277264        0.8041074610       -1.2525965120
 O         -4.0275077260       -1.6433095339       -0.6856227540
 C         -2.7268918551       -2.1149068043       -0.6161172651
 O         -2.6238053909       -3.3571500270       -0.6773978197
 O         -1.0120611021        1.0589753912       -0.3038209063
 C         -0.2723356069       -1.7147855228       -0.4131642136
 C          0.3815255092       -1.2572602147        0.8678474369
 C         -0.2948035579       -1.4380864448        2.0719814884
 C          0.2640817302       -1.0216858017        3.2641032306
 C          1.5108150168       -0.4207903180        3.2830467269
 C          2.1977578407       -0.2419580493        2.0886767072
 C          1.6340387716       -0.6662748025        0.8923706990
 H          2.1850107494       -0.5299478686       -0.0218671511
 N          3.4412545898        0.3985214465        2.0741804368
 S          4.5937340450        0.0851237900        0.9125230822
 O          4.6779485310       -1.3238460117        0.6049693033
 O          5.8011033558        0.6863367694        1.4383540002
 C          4.0640413136        0.9955287180       -0.5231430305
 C          4.2951266254        0.4556812028       -1.7730355968
 C          3.9031009649        1.1677563527       -2.8953233505
 C          3.2915002050        2.4030665847       -2.7484511219
 C          3.0725951638        2.9340791151       -1.4866546059
 C          3.4641716610        2.2280425980       -0.3606159991
 H          3.2991552622        2.6097815155        0.6329800065
 H          2.5919093465        3.8927504937       -1.3762157910
 H          2.9810381013        2.9537064955       -3.6224979833
 H          4.0720787764        0.7563965650       -3.8779286167
 H          4.7643008547       -0.5134373683       -1.8392999524
 H          3.8353388339        0.6232707237        2.9747690204
 H          1.9455873614       -0.0886104041        4.2134147099
 H         -0.2737747262       -1.1660335789        4.1892500052
 H         -1.2701645999       -1.9062474686        2.0572642721
 H         -0.3531144124       -2.8114526835       -0.3817704268
 C          0.4907402355       -1.3173745084       -1.6597777727
 C          1.6260634798       -2.1616954238       -2.1521716360
 C          0.3283861739       -2.1400008890       -2.9010930451
 H          0.2910112503       -1.6339055913       -3.8538273880
 H         -0.3145433621       -3.0063204402       -2.8409018748
 H          2.4799489668       -1.6688556143       -2.5914189399
 H          1.8754373378       -3.0462225794       -1.5853845155
 H          0.5644312333       -0.2421025053       -1.7778559568
