  62
        -98.94330504
 C         -2.3576429241       -0.5288323445        0.1252089621
 C         -3.3899330847       -0.3059387022        1.0695272255
 C         -4.3494422973        0.7548823118        0.7376067885
 C         -4.1806633185        1.4621317790       -0.3946803835
 C         -5.1071793729        2.5390535329       -0.8784511088
 C         -6.1957840993        1.9650040234       -1.7961227214
 C         -6.9044183936        0.7384113501       -1.2214214445
 H         -7.6708002629        0.4393189215       -1.9397778042
 H         -6.1905720570       -0.0855760155       -1.1518595175
 C         -7.5515849283        0.9644617722        0.1520958471
 H         -8.5520938350        0.5268580194        0.1442335026
 H         -7.6673878271        2.0331901510        0.3357600284
 C         -6.7967548652        0.3286128865        1.3209769209
 H         -7.4448816405        0.3590494053        2.2008572876
 H         -6.5962621567       -0.7226396254        1.0990743934
 C         -5.4728108098        1.0014221775        1.7051138744
 H         -5.6318310369        2.0723095206        1.8467737805
 H         -5.1467752115        0.5735006280        2.6576085431
 H         -5.7343842322        1.6806001631       -2.7446415709
 H         -6.9275821607        2.7497565593       -1.9961867822
 H         -5.5623440276        3.0314510219       -0.0213511264
 H         -4.5213436314        3.2703156155       -1.4378067399
 O         -3.1595151762        1.2413369763       -1.2605752764
 C         -2.2273667098        0.2392928962       -1.0318696303
 O         -1.3582687549        0.1409993104       -1.9185908095
 H          0.8915095947       -1.5836938759       -1.2104495970
 C          1.0355075862       -1.0516498504       -0.2832663295
 C          0.0069608382       -0.9846539092        0.6422426552
 C          0.2199726439       -0.2793864682        1.8242950279
 C          1.4291321542        0.3424260834        2.0680747020
 C          2.4508732913        0.2820383997        1.1356610571
 C          2.2484335917       -0.4159745018       -0.0463205093
 N          3.2724050894       -0.4624943881       -1.0062219002
 S          4.8217096598       -0.8772598240       -0.5210254006
 O          5.4632847350       -1.4020097370       -1.7068839311
 O          4.8006566529       -1.7455697430        0.6334669938
 C          5.5741356966        0.6804880931       -0.0995720484
 C          5.5600231722        1.6870259217       -1.0452016761
 C          6.1546749357        2.9006180223       -0.7393726536
 C          6.7528432905        3.0852925264        0.4984223443
 C          6.7609462412        2.0639965644        1.4359598380
 C          6.1666347039        0.8478298867        1.1366607110
 H          6.1441484499        0.0273956045        1.8362195471
 H          7.2263450660        2.2096877864        2.3975669894
 H          7.2153002287        4.0310016878        0.7332747870
 H          6.1494006265        3.6973700750       -1.4657406343
 H          5.0868383683        1.5031871345       -1.9954852227
 H          3.0128126951       -0.9367612307       -1.8585538028
 H          3.3958301274        0.7679910868        1.3162725554
 H          1.5793750558        0.8823003943        2.9906672824
 H         -0.5818695273       -0.2241408561        2.5477497322
 C         -1.3410828961       -1.6212524618        0.4118856735
 H         -1.6650705810       -2.0772347374        1.3579046304
 C         -1.3467186224       -2.6839143209       -0.6663553683
 C         -0.7146275239       -4.0151305541       -0.3930765475
 C         -2.2054274609       -3.8988104331       -0.4913048517
 H         -2.6989511295       -4.3102528167       -1.3590503577
 H         -2.7851996384       -3.9735272699        0.4169669306
 H         -0.1832774300       -4.5097370221       -1.1922253413
 H         -0.2790177015       -4.1680677321        0.5828800989
 H         -1.2642334316       -2.2766463683       -1.6673183973
 O         -3.5024188303       -0.9635992342        2.1386209204
