  62
        -98.92967855
 C         -1.7568238295       -0.5000496807        0.2161666008
 C         -2.6158426697        0.3109250198        1.0082444000
 C         -4.0722181697        0.1803199396        0.8186339599
 C         -4.5247634995       -0.7103879712       -0.0817280995
 C         -5.9462180394       -1.0112873716       -0.4755283194
 C         -6.5485753193        0.0692199276       -1.3875868604
 C         -6.2616942695        1.5052566780       -0.9570928915
 H         -5.1817362696        1.6577223381       -0.9116641914
 H         -6.6496701695        2.1687113873       -1.7345984721
 C         -6.8896139198        1.9246236889        0.3700230081
 H         -6.6859663699        2.9904439691        0.5020597873
 H         -7.9730495898        1.7993299788        0.3093889380
 C         -6.3837808199        1.1891036100        1.6131358187
 H         -6.8285467698        0.2008400000        1.6938834195
 H         -6.7243433701        1.7540756306        2.4858795882
 C         -4.8652512599        1.0927181902        1.7226481991
 H         -4.6069867500        0.7916850110        2.7452499793
 H         -4.4317120500        2.0921366102        1.6012699283
 H         -7.6270366093       -0.0881637026       -1.4432616104
 H         -6.1354791392       -0.0661489532       -2.3901466002
 H         -5.9260315592       -1.9563657421       -1.0228981087
 H         -6.5572312295       -1.1551541210        0.4106813106
 O         -3.6737325393       -1.4691201917       -0.8224963487
 C         -2.2938456193       -1.3914444515       -0.7161193386
 O         -1.7102380091       -2.1548508621       -1.5080356379
 O         -2.1815236999        1.1354645706        1.8597084994
 C         -0.2763743496       -0.3163233103        0.4878921009
 C          0.5438886405        0.3096016489       -0.6185649795
 C          0.2218019307        0.2387190078       -1.9670403195
 C          1.0408348608        0.8259090971       -2.9168109298
 C          2.2024944007        1.4773984475       -2.5479270502
 C          2.5366959405        1.5547647386       -1.2003798702
 C          1.7049640104        0.9818182093       -0.2507745499
 H          1.9620967902        1.0830241201        0.7927667701
 N          3.7070023104        2.2064994490       -0.7873877205
 S          4.5672638802        1.6211507101        0.5165921201
 O          3.9434892500        2.0255574110        1.7516586897
 O          5.9151285702        2.1040358401        0.3068069699
 C          4.5298319504       -0.1581969000        0.3718564815
 C          4.8541821306       -0.7372027809       -0.8390673080
 C          4.8421818208       -2.1180289110       -0.9467616969
 C          4.5158101707       -2.8946460102        0.1542878337
 C          4.1993898205       -2.2995192492        1.3652584131
 C          4.2027796903       -0.9180315391        1.4760998720
 H          3.9559875101       -0.4145886084        2.3976903116
 H          3.9457892904       -2.9043979686        2.2214776536
 H          4.5091221708       -3.9700239402        0.0683057545
 H          5.0861050410       -2.5845486817       -1.8874280965
 H          5.1144863607       -0.1120330916       -1.6772920485
 H          4.3077276405        2.5280441785       -1.5317090807
 H          2.8405385308        1.9298940969       -3.2913667804
 H          0.7713213310        0.7647478762       -3.9603211798
 H         -0.6645607992       -0.2877099426       -2.2786523592
 H         -0.2724269398        0.4131340303        1.3148737703
 C          0.4908558904       -1.5292890799        1.0171201420
 C         -0.1766308495       -2.7778240095        1.5026444328
 C          0.6566222007       -2.8078712504        0.2567677130
 H          1.6199888607       -3.2943985903        0.2912587035
 H          0.1382790608       -2.9007814212       -0.6831175770
 H          0.1993040704       -3.2470460488        2.3997903633
 H         -1.2487937995       -2.8507042697        1.3879570427
 H          1.3626577103       -1.2134103393        1.5831637118
