  62
        -98.93637343
 C         -1.6613359096       -1.4324664000        0.3269953412
 C         -1.8967118395       -0.1885135900        0.9676039714
 C         -3.1293641496        0.5335919999        0.6057452418
 C         -3.9522771399        0.0031908099       -0.3180228679
 C         -5.3043211001        0.4527815699       -0.8316473874
 C         -5.8242050901        1.8581467398       -0.5428142471
 C         -5.0559927404        2.9734900199       -1.2489267373
 H         -5.4577545004        3.9322047599       -0.9135759571
 H         -5.2360963208        2.8954102100       -2.3241151073
 C         -3.5462692404        2.9614721700       -1.0267407979
 H         -3.1211126706        3.8087884100       -1.5718333480
 H         -3.1192192405        2.0536843100       -1.4584287381
 C         -3.1070619698        3.0760682499        0.4315481120
 H         -3.5936354797        3.9380972799        0.8919506422
 H         -2.0312721299        3.2610012000        0.4331493716
 C         -3.3683424195        1.8390637799        1.3100254220
 H         -4.3723661593        1.8606160498        1.7293757924
 H         -2.6648372291        1.8632019699        2.1473501317
 H         -5.8560389397        2.0367199098        0.5279368329
 H         -6.8569369803        1.8885285198       -0.9006504167
 H         -6.0237343200       -0.2713030302       -0.4329570572
 H         -5.2804207705        0.2954210299       -1.9147783274
 O         -3.6591136001       -1.1717099000       -0.9442678881
 C         -2.5276500599       -1.9167492100       -0.6515439385
 O         -2.4348919701       -2.9571244699       -1.3321161686
 O         -1.1169601492        0.2882587500        1.8340652811
 C         -0.4301250794       -2.2026446399        0.7715998607
 C          0.7476407202       -1.9668994098       -0.1429984697
 C          0.6835549998       -2.2620601697       -1.5005174497
 C          1.7736878295       -2.0345975596       -2.3215095001
 C          2.9502565696       -1.5170260096       -1.8075937405
 C          3.0244781301       -1.2214473797       -0.4537851705
 C          1.9274837304       -1.4451312198        0.3683483499
 H          1.9877234108       -1.1957656198        1.4192774999
 N          4.2215668502       -0.6772481396        0.0652062791
 S          4.5526119700        0.9019106204       -0.3907571709
 O          4.6445972995        0.9609140305       -1.8261164310
 O          5.7323854502        1.2859677005        0.3489419887
 C          3.1395934201        1.8226283603        0.1863633496
 C          3.2101386805        2.4597527003        1.4091522296
 C          2.0802539807        3.0928512402        1.9000225501
 C          0.9022351004        3.0649724001        1.1700704205
 C          0.8466106500        2.4170123302       -0.0535860795
 C          1.9744369099        1.7870951403       -0.5536112000
 H          1.9654490796        1.2740363803       -1.5020686800
 H         -0.0740037502        2.3848046902       -0.6150437692
 H          0.0192861305        3.5442087701        1.5627377409
 H          2.1164364210        3.5976733601        2.8520636101
 H          4.1460838007        2.4534140603        1.9447208493
 H          4.2802489306       -0.7400421797        1.0726803791
 H          3.8025517194       -1.3188127995       -2.4367585108
 H          1.7073882391       -2.2655025296       -3.3741399801
 H         -0.2317304004       -2.6649580098       -1.9065524694
 H         -0.1737420891       -1.7846829500        1.7546521806
 C         -0.6756729393       -3.6906042299        0.9347810007
 C          0.2205493911       -4.4806333199        1.8385726504
 C         -1.1984114388       -4.2102764000        2.2386745109
 H         -1.9068096287       -5.0247568601        2.2206389211
 H         -1.3786434085       -3.4938039101        3.0269774410
 H          0.4909912411       -5.4835027999        1.5461591302
 H          1.0032563613       -3.9494335799        2.3587860801
 H         -1.0289628496       -4.1695956699        0.0312686008
