  62
        -98.94438363
 C         -2.3506207891       -1.1241791226        0.2352090029
 C         -2.3903658791        0.1436650255       -0.3943128308
 C         -3.3899211868        1.0842484586        0.1300745628
 C         -4.1651027071        0.7325122602        1.1713629774
 C         -5.2087788344        1.5914836516        1.8322017267
 C         -6.5719487360        1.5730134537        1.1269565182
 C         -6.6284395091        2.3305404301       -0.2002111191
 H         -7.6818291405        2.4214859359       -0.4723628127
 H         -6.2407523809        3.3397854238       -0.0579600898
 C         -5.8790363373        1.6468285143       -1.3522576304
 H         -5.6944226005        0.6009079341       -1.0968874526
 H         -6.5045166109        1.6523199913       -2.2477387159
 C         -4.5508245732        2.3061200259       -1.7244187734
 H         -4.0891757001        1.7204848550       -2.5235135123
 H         -4.7350081067        3.3120692383       -2.1082644745
 C         -3.5471719326        2.4017558084       -0.5676443307
 H         -3.8587491409        3.1715837363        0.1381593198
 H         -2.5725833417        2.6793317296       -0.9777167083
 H         -6.8678186158        0.5338314092        0.9663054132
 H         -7.2968169344        2.0235600300        1.8088025083
 H         -5.3385979596        1.1985805814        2.8428871251
 H         -4.8472972703        2.6178373561        1.9026349186
 O         -4.0683959985       -0.4816260054        1.7748839979
 C         -3.1756953419       -1.4359780125        1.3193531049
 O         -3.2082933005       -2.5094394685        1.9534003390
 O         -1.6433058246        0.4863938205       -1.3488525853
 C         -1.3738683204       -2.2043658276       -0.2052334525
 C          0.0172505894       -1.7724106163        0.1903671975
 C          0.4640968901       -2.0218132102        1.4850765216
 C          1.7086836692       -1.5847592543        1.8974541765
 C          2.5301962715       -0.8823331294        1.0322618947
 C          2.0852267949       -0.6117921699       -0.2540960847
 C          0.8430269816       -1.0710360204       -0.6735710729
 H          0.5035701846       -0.8413532029       -1.6709268536
 N          2.9049215115        0.1074818099       -1.1396544289
 S          3.6860793937        1.4821864089       -0.5793239538
 O          2.9530040198        2.1252291454        0.4867991676
 O          3.9384823857        2.2801796561       -1.7595904862
 C          5.2383955556        0.8584650823        0.0343036170
 C          5.6651487866        1.1998229987        1.3026736103
 C          6.8816431211        0.7124465452        1.7550528986
 C          7.6466433469       -0.1023394210        0.9347827239
 C          7.2054262357       -0.4335428396       -0.3377853656
 C          5.9910438270        0.0512526334       -0.7962605223
 H          5.6140644568       -0.1810265469       -1.7781334967
 H          7.8028364130       -1.0677572238       -0.9727669521
 H          8.5919474321       -0.4815813254        1.2895564899
 H          7.2258776057        0.9695781318        2.7439458261
 H          5.0338905991        1.8310952483        1.9079578556
 H          2.4692772738        0.2845901667       -2.0336313950
 H          3.4967720388       -0.5284597311        1.3514718540
 H          2.0435470892       -1.7892170682        2.9030975325
 H         -0.1866912338       -2.5505156090        2.1678321389
 H         -1.6302120900       -3.0959027888        0.3821106949
 C         -1.5174422988       -2.5352108957       -1.6761881071
 C         -0.8976167223       -3.7922842362       -2.2057641462
 C         -2.3872919490       -3.6842230182       -2.0846890177
 H         -2.9739268240       -3.5902214835       -2.9863586688
 H         -2.8792425841       -4.2419384208       -1.3010737704
 H         -0.4594833451       -3.7763570977       -3.1919320125
 H         -0.3767419925       -4.4237427475       -1.5020918131
 H         -1.5231129472       -1.6627613467       -2.3171740848
