  62
        -98.93989498
 C         -1.5254425395       -1.1128887515       -0.0256965315
 C         -2.5900330572       -0.7891786256        0.8525056062
 C         -3.2997437549        0.4734274906        0.5918635876
 C         -2.8954144275        1.2580694521       -0.4212418062
 C         -3.4283689392        2.6073506784       -0.8336866622
 C         -4.9525277196        2.7889739263       -0.8585279263
 C         -5.7524635943        1.5311459720       -1.2275657558
 H         -6.4580482860        1.7803653419       -2.0224223931
 H         -5.0838244210        0.7611824217       -1.6164124792
 C         -6.5525630373        0.9657546885       -0.0514293047
 H         -7.0206519835        1.7947018771        0.4840206344
 H         -7.3552415428        0.3362637602       -0.4432410542
 C         -5.7550195064        0.1175842654        0.9386641635
 H         -5.4746175980       -0.8306120881        0.4718632646
 H         -6.4101868080       -0.1219582019        1.7796642661
 C         -4.4720572389        0.7668370672        1.4828184386
 H         -4.6056385400        1.8350458119        1.6348291083
 H         -4.2432749065        0.3031523221        2.4460946306
 H         -5.2923816882        3.1524661111        0.1102465760
 H         -5.1639374321        3.5788981180       -1.5812687745
 H         -2.9912590133        3.3626187794       -0.1742003564
 H         -3.0247888558        2.7795963945       -1.8344675527
 O         -1.8561462390        0.9157161105       -1.2326344482
 C         -1.1550191133       -0.2698964038       -1.0717970305
 O         -0.2524397704       -0.4357001676       -1.9147156926
 H          1.5361957814       -2.0528183897       -1.2361781509
 C          1.6762840982       -1.8150067116       -0.1940809045
 C          0.6303765835       -1.9795680210        0.7004139440
 C          0.8361007812       -1.6424321753        2.0355104786
 C          2.0571063401       -1.1534915013        2.4615138322
 C          3.0897816968       -0.9607726485        1.5598099940
 C          2.8869669390       -1.2808071797        0.2242697168
 N          3.9040392020       -1.0198379071       -0.7128280040
 S          4.6097787358        0.4963510728       -0.6269902713
 O          4.9868178222        0.8262753718       -1.9841883709
 O          5.6948486678        0.4600936666        0.3238636123
 C          3.3483631539        1.6160296605       -0.0347388517
 C          3.6360096425        2.4347593859        1.0391832946
 C          2.6644603070        3.3081502442        1.4998967803
 C          1.4231085559        3.3457724762        0.8839636661
 C          1.1506255998        2.5193157976       -0.1947575462
 C          2.1195987040        1.6466606779       -0.6637080384
 H          1.9056411691        0.9908118962       -1.4932354123
 H          0.1842912484        2.5340909629       -0.6746329714
 H          0.6629212689        4.0203794471        1.2453278423
 H          2.8753301609        3.9520191563        2.3385041371
 H          4.6108205593        2.3654963276        1.4941840283
 H          3.6291116493       -1.2266106326       -1.6626963941
 H          4.0422094633       -0.5592513337        1.8666376005
 H          2.2040139883       -0.9049523144        3.5013541224
 H          0.0180670556       -1.7534561437        2.7331415146
 C         -0.7451569144       -2.3909028468        0.2397151561
 H         -1.2601364612       -2.8797007718        1.0769804429
 C         -0.7443844241       -3.3290064023       -0.9484107604
 C         -0.2950322090       -4.7462600705       -0.7592281784
 C         -1.7426419779       -4.4448463561       -1.0015487724
 H         -2.1717524633       -4.7066479621       -1.9572408556
 H         -2.4303775187       -4.5407827038       -0.1741946013
 H          0.2716570121       -5.2186081108       -1.5470480423
 H          0.0018085228       -5.0444963757        0.2348932571
 H         -0.5026598118       -2.8419258169       -1.8852086362
 O         -2.9279058578       -1.5208730784        1.8196118244
