  62
        -98.94317250
 C          1.7012691474        0.9757955480        0.2865720793
 C          2.8989905732        0.8149107862        1.0338204173
 C          3.6451461693       -0.4275479054        0.8101381545
 C          3.1457276390       -1.3641314585       -0.0155159779
 C          3.7708114279       -2.6969533507       -0.3256055075
 C          4.8396414839       -2.6418901304       -1.4259577821
 C          6.1610105556       -1.9885205180       -1.0188369445
 H          6.5253267300       -2.4491214646       -0.1000197121
 H          6.8849190799       -2.2135342335       -1.8046331427
 C          6.0867188411       -0.4656493560       -0.8391167532
 H          5.1836799307       -0.0855356788       -1.3227096376
 H          6.9372790368        0.0023990680       -1.3399308182
 C          6.1041984685        0.0023438564        0.6162988266
 H          7.0619795844       -0.2568183354        1.0728236602
 H          6.0109893005        1.0915450489        0.6278077613
 C          4.9773173015       -0.5800123290        1.4794150654
 H          5.1758660002       -1.6287707644        1.6991926670
 H          4.9430391570       -0.0249089250        2.4200621196
 H          5.0470726193       -3.6703637103       -1.7304382225
 H          4.4256591783       -2.1174848916       -2.2904845299
 H          2.9637025342       -3.3499566005       -0.6641872807
 H          4.2027591620       -3.1197845271        0.5818146122
 O          1.9667680192       -1.2017868532       -0.6676454372
 C          1.2298205132       -0.0253681120       -0.5650475809
 O          0.2071310043       -0.0266744255       -1.2740677631
 O          3.3237476682        1.6719976368        1.8527591920
 C          0.9190972266        2.2593493105        0.5133231236
 C         -0.5085722082        1.9207348136        0.8517807195
 C         -0.8434907620        1.5561053197        2.1522935564
 C         -2.1342606383        1.1738791122        2.4681355641
 C         -3.1088389881        1.1160140509        1.4870311222
 C         -2.7752114639        1.4541863656        0.1820818305
 C         -1.4912443600        1.8842517861       -0.1240990619
 H         -1.2441311675        2.1443767808       -1.1412377222
 N         -3.7367766500        1.3363858735       -0.8349968937
 S         -4.7582703669        0.0139980375       -0.7990701833
 O         -5.0901953687       -0.2479472312       -2.1830552271
 O         -5.8823890920        0.3067239723        0.0586681548
 C         -3.8438700517       -1.3595235605       -0.1102528565
 C         -2.5497610352       -1.6045402132       -0.5232019668
 C         -1.8719288745       -2.6868912080        0.0156868050
 C         -2.4940706141       -3.5084221830        0.9420640964
 C         -3.7972471495       -3.2528840488        1.3403367950
 C         -4.4783215872       -2.1683616265        0.8124529428
 H         -5.4875282368       -1.9254169237        1.1036825435
 H         -4.2811614920       -3.8913295232        2.0618735934
 H         -1.9589346575       -4.3483641976        1.3566031576
 H         -0.8534937652       -2.8666829838       -0.2917864959
 H         -2.0547048760       -0.9557954268       -1.2282454148
 H         -3.3604949015        1.4750446479       -1.7616895006
 H         -4.1177755871        0.8088808431        1.7115954539
 H         -2.3833528319        0.9057620126        3.4834290816
 H         -0.0759406126        1.5690457875        2.9134472531
 H          1.3870740447        2.7058591666        1.4050479224
 C          1.0366619629        3.2916715217       -0.5981992203
 C          2.3603753856        3.5469420297       -1.2535738429
 C          1.2398223091        2.9389653927       -2.0399068434
 H          0.7492832271        3.5486930912       -2.7851766299
 H          1.3027380581        1.8959518765       -2.3066386939
 H          2.6478332093        4.5659862833       -1.4639071643
 H          3.1845345574        2.9101004515       -0.9661410348
 H          0.4206751043        4.1635478556       -0.3982092490
