  62
        -98.93797812
 C         -2.2309497056       -1.0273159801       -0.5191600458
 C         -3.6219372204       -1.0422661941       -0.2290016324
 C         -4.3559979612        0.2020175925       -0.4794641228
 C         -3.6998437424        1.2785465531       -0.9474963064
 C         -4.3071270832        2.6155899445       -1.2747242954
 C         -4.4548326050        3.5458619328       -0.0630728730
 C         -5.5577821648        3.1580400224        0.9225364298
 H         -5.6952176186        4.0044142060        1.5984026640
 H         -6.4941409797        3.0178171428        0.3815538651
 C         -5.2502961017        1.9063645765        1.7565378378
 H         -4.1793448373        1.6929953163        1.7128889550
 H         -5.4934245787        2.0983144718        2.8041169928
 C         -6.0231326006        0.6565188990        1.3344555288
 H         -7.0911337570        0.8129944341        1.5012552027
 H         -5.7014378996       -0.1742887382        1.9676093000
 C         -5.8126504482        0.2454998001       -0.1287930310
 H         -6.2185711906       -0.7600191860       -0.2636108077
 H         -6.3426873062        0.9292517969       -0.7915217137
 H         -3.4970061131        3.5919615279        0.4609010337
 H         -4.6728870949        4.5460879662       -0.4445551827
 H         -3.6389261093        3.0924664312       -1.9950535314
 H         -5.2802087038        2.4709467174       -1.7449168669
 O         -2.3667197870        1.2614837119       -1.2018410215
 C         -1.5920672722        0.1276399782       -0.9763002617
 O         -0.3872697323        0.2994594536       -1.2394576611
 O         -4.2242788751       -2.0545329977        0.2168121084
 C         -1.4552368262       -2.3002462826       -0.2197750604
 C         -0.3064101070       -1.9780028920        0.7000714554
 C         -0.5318956479       -1.8695552071        2.0688755851
 C          0.4884603054       -1.4993121731        2.9254315546
 C          1.7482165115       -1.2111921242        2.4310316649
 C          1.9768557098       -1.3017438640        1.0648463332
 C          0.9611781342       -1.7081509987        0.2100044575
 H          1.1450933328       -1.7673949420       -0.8513263628
 N          3.2487766640       -0.9808824196        0.5525628671
 S          3.9634801943        0.4184773111        1.1788862848
 O          4.7212947576        0.0469498277        2.3500018422
 O          2.9731551412        1.4518957903        1.3794143441
 C          5.0744205631        0.8703664432       -0.1392577703
 C          4.5604744615        1.5594487121       -1.2220793578
 C          5.4102416493        1.9016700260       -2.2619446032
 C          6.7506137783        1.5491077619       -2.2027929181
 C          7.2504240149        0.8565441792       -1.1103963330
 C          6.4064009745        0.5112670892       -0.0664974872
 H          6.7487785242       -0.0205274608        0.8058148196
 H          8.2929604464        0.5856975815       -1.0681519635
 H          7.4087031225        1.8187432303       -3.0136212061
 H          5.0232203174        2.4406870894       -3.1118216894
 H          3.5131871529        1.8206190318       -1.2243666733
 H          3.2395548922       -0.9508942023       -0.4583936302
 H          2.5490914079       -0.8928250963        3.0796582052
 H          0.3005290189       -1.4220565296        3.9860260565
 H         -1.5232306902       -2.0658496315        2.4540117758
 H         -2.1717367642       -2.9257042055        0.3364126195
 C         -1.0340645394       -3.1091915332       -1.4372643194
 C         -1.9811155002       -3.2932846222       -2.5846550716
 C         -0.7202377474       -2.5068233159       -2.7723133391
 H          0.0760880964       -2.9507147179       -3.3521782340
 H         -0.7904639630       -1.4361363645       -2.8782155666
 H         -2.0573188821       -4.2675932898       -3.0430378743
 H         -2.9158594803       -2.7529478650       -2.5435746136
 H         -0.4472964576       -3.9770978876       -1.1510547339
