  62
        -98.94277332
 C          1.2908971927        1.6281260665        0.2219594176
 C          1.6434002973        0.6207072030        1.1494298291
 C          2.8494736448       -0.1663784392        0.8466077984
 C          3.5333289887        0.0897369030       -0.2819576285
 C          4.8203283304       -0.5257847098       -0.7747778166
 C          5.0210222758       -2.0323997433       -0.5806392660
 C          3.7542881647       -2.8813441960       -0.7611046126
 H          2.9492326571       -2.2791550714       -1.1876721279
 H          3.9625904048       -3.6883065296       -1.4664435152
 C          3.2631833931       -3.5103682839        0.5440471066
 H          4.1205289853       -3.9025200121        1.0965261930
 H          2.6108586325       -4.3526041275        0.3005102214
 C          2.4633403283       -2.5719057162        1.4448466355
 H          1.5197862574       -2.3246624038        0.9490087555
 H          2.2136439892       -3.1137961766        2.3607909095
 C          3.1733148163       -1.2600277039        1.8234328089
 H          2.7785432727       -0.9279883474        2.7876934496
 H          4.2459003816       -1.4093170020        1.9230606911
 H          5.7739148482       -2.3434491006       -1.3072180316
 H          5.4403819196       -2.2226073242        0.4062093341
 H          5.6497832469        0.0078368636       -0.3001782217
 H          4.8560568349       -0.2892027820       -1.8412869311
 O          3.1378033130        1.0489233198       -1.1676759103
 C          2.0019706292        1.8158985415       -0.9613078497
 O          1.7471422608        2.6125612498       -1.8849952382
 O          0.9799577418        0.3934393462        2.1978327911
 C          0.0363897469        2.4440386248        0.4696936427
 C         -1.0378444286        2.0727455976       -0.5252326754
 C         -1.9421091451        2.9839839353       -1.0567082388
 C         -2.9212499271        2.5609690716       -1.9396383053
 C         -3.0378541066        1.2285753549       -2.2931154479
 C         -2.1400225201        0.3086987432       -1.7633292641
 C         -1.1526434043        0.7399962019       -0.8935743340
 H         -0.4455378947        0.0207728298       -0.5127640256
 N         -2.2069834471       -1.0535607070       -2.0893828458
 S         -1.8147093253       -2.2039435680       -0.9393084459
 O         -0.3907888574       -2.2383684756       -0.7231410014
 O         -2.4034821968       -3.4244614599       -1.4493047804
 C         -2.6893139662       -1.6897843094        0.5279394329
 C         -2.0297067030       -1.1306940622        1.6025947502
 C         -2.7739500814       -0.6988761338        2.6904604987
 C         -4.1528896848       -0.8319914316        2.6876115136
 C         -4.8006868394       -1.4043579866        1.6027427996
 C         -4.0642728858       -1.8343134376        0.5123016144
 H         -4.5276997035       -2.2955207475       -0.3448142914
 H         -5.8732509989       -1.5128913411        1.6034324066
 H         -4.7243572061       -0.4902303247        3.5361629074
 H         -2.2603654589       -0.2560552516        3.5290185565
 H         -0.9557231039       -1.0274133495        1.5921539804
 H         -3.0065172862       -1.3259995551       -2.6411847986
 H         -3.8052972124        0.9030261971       -2.9782947366
 H         -3.6112805951        3.2803609291       -2.3536179996
 H         -1.8753059612        4.0250808343       -0.7865133785
 H         -0.3180723996        2.1328730417        1.4650293269
 C          0.3420268028        3.9263210678        0.5048022293
 C         -0.4553335022        4.8426611138        1.3830164492
 C          0.9603565700        4.5071873535        1.7403241403
 H          1.7187268447        5.2673589404        1.6284491477
 H          1.1349100652        3.8367946030        2.5693465222
 H         -0.6689680455        5.8394980659        1.0277895503
 H         -1.2428578528        4.4061850324        1.9785060966
 H          0.6882516512        4.3021662643       -0.4510132943
