  62
        -98.94306188
 C          1.7083318392        1.4930904763       -0.0850153789
 C          2.9884994351        1.1977115010        0.4581742322
 C          3.7019435249        0.0595677656       -0.1300461565
 C          3.1352197580       -0.6354858187       -1.1319305128
 C          3.7241919311       -1.8311626015       -1.8293184963
 C          3.4736465286       -3.1571607079       -1.0977023187
 C          4.2907581431       -3.3584178808        0.1790634393
 H          4.1839664853       -4.4064469868        0.4658243138
 H          5.3461521176       -3.1867181819       -0.0351730889
 C          3.8526482500       -2.4778846688        1.3580100478
 H          2.8501381384       -2.0862936968        1.1700235315
 H          3.7929626418       -3.0858927474        2.2634411570
 C          4.7911652103       -1.3095091313        1.6610513068
 H          5.7633910338       -1.6924053893        1.9793904053
 H          4.3676798151       -0.7367470428        2.4900642631
 C          5.0067354858       -0.3481907887        0.4843291790
 H          5.4951751980        0.5530621774        0.8630042731
 H          5.6528235658       -0.8071812881       -0.2638318997
 H          3.7187483783       -3.9642219369       -1.7919230811
 H          2.4095542895       -3.2316696795       -0.8622897945
 H          4.7959223304       -1.6863446833       -1.9673600574
 H          3.2520482374       -1.8841763340       -2.8128824754
 O          1.9235366437       -0.3072960245       -1.6463649105
 C          1.1692305377        0.7421106903       -1.1318331528
 O          0.0754151709        0.8819633130       -1.7086166183
 O          3.5076886301        1.8536043166        1.3992341720
 C          0.9040762534        2.5803406251        0.6111611339
 C         -0.3869415278        1.9628390371        1.0824124131
 C         -0.4179086767        1.2584686437        2.2824224846
 C         -1.5634255082        0.5961061471        2.6833532489
 C         -2.6871680308        0.5889473058        1.8754306197
 C         -2.6552229765        1.2697623285        0.6653908516
 C         -1.5251833532        1.9846840705        0.2920082395
 H         -1.5130807776        2.5150339604       -0.6470203960
 N         -3.7635673836        1.1985518066       -0.1968439858
 S         -4.4715593635       -0.3066915977       -0.3900061915
 O         -4.9980021406       -0.3140960432       -1.7377081621
 O         -5.4489242566       -0.5056497930        0.6540319899
 C         -3.1772448065       -1.5284040897       -0.2184853590
 C         -3.3786138037       -2.5962847458        0.6338869106
 C         -2.3846501580       -3.5524955308        0.7622849931
 C         -1.2070434844       -3.4249842626        0.0415093881
 C         -1.0225390104       -2.3494096406       -0.8123994704
 C         -2.0152145141       -1.3920609269       -0.9503953239
 H         -1.8634219899       -0.5430592005       -1.5977962539
 H         -0.1067490049       -2.2316745346       -1.3712171035
 H         -0.4296748411       -4.1658856988        0.1464747373
 H         -2.5279157727       -4.3900830541        1.4258396252
 H         -4.3046359275       -2.6512898611        1.1831941972
 H         -3.5955659120        1.6292503346       -1.0948456348
 H         -3.5831585323        0.0605416336        2.1591115762
 H         -1.5786070114        0.0658705586        3.6231854790
 H          0.4729174990        1.2280020172        2.8941651716
 H          1.5070050198        2.8347036203        1.4971645095
 C          0.7072111528        3.8764893480       -0.1580496509
 C          1.8589670607        4.4968236426       -0.8907534737
 C          0.6791304930        3.9757717811       -1.6521882020
 H          0.0023518218        4.6914372384       -2.0968884005
 H          0.7939613700        3.0727583296       -2.2291305909
 H          2.0036949359        5.5645463305       -0.8246940597
 H          2.7784872230        3.9308065178       -0.9306683865
 H          0.0543849758        4.5582844959        0.3795497412
