  62
        -98.93941434
 C         -2.4506227724       -1.2322553929       -0.0003149443
 C         -3.1640015716       -0.4632800001        0.9465778497
 C         -3.8256374344        0.7518331716        0.4414857565
 C         -3.7036839107        1.0671771893       -0.8598220812
 C         -4.2349734511        2.2902496798       -1.5544201694
 C         -3.1629734462        3.3926921169       -1.6005839891
 C         -3.1202594671        4.3033988732       -0.3737289692
 H         -2.2372625219        4.9392723372       -0.4733594080
 H         -3.9967630326        4.9547167173       -0.3795054928
 C         -3.0558622489        3.5837132559        0.9762043699
 H         -2.3478179902        2.7543222573        0.9151735965
 H         -2.6610950239        4.2882926027        1.7111231280
 C         -4.4239073192        3.0767876905        1.4576243216
 H         -4.5910410533        3.4120437128        2.4831878469
 H         -5.2039900217        3.5357820722        0.8506693064
 C         -4.5995196666        1.5499376507        1.4551308051
 H         -5.6630337280        1.3136063827        1.3475322987
 H         -4.2852142530        1.1460450425        2.4226609743
 H         -2.1899880867        2.9110848214       -1.7351975314
 H         -3.3395146620        4.0177029245       -2.4783316161
 H         -4.4693002383        1.9911228835       -2.5780405134
 H         -5.1425133736        2.6438103219       -1.0741656637
 O         -2.9973272643        0.3038356463       -1.7380294689
 C         -2.3438377563       -0.8495830652       -1.3375700146
 O         -1.7232034356       -1.4314245662       -2.2463599523
 O         -3.2320701031       -0.7692180686        2.1689898507
 C         -1.7134434104       -2.4760562141        0.4653047041
 C         -0.2320299954       -2.2695561744        0.2638490752
 C          0.5851360723       -3.1451464355       -0.4371689302
 C          1.9276696980       -2.8568287396       -0.6166371260
 C          2.4835762675       -1.7017342685       -0.0989724586
 C          1.6765393675       -0.8231493248        0.6127310914
 C          0.3350545375       -1.1157679934        0.7930009316
 H         -0.2946518064       -0.4263330331        1.3432207592
 N          2.2345398097        0.3549500606        1.1491882566
 S          2.9659270207        1.4044444872        0.0558329567
 O          2.8988877666        2.7080375160        0.6809273253
 O          2.3802755698        1.2924505492       -1.2606500435
 C          4.6607452384        0.8611583841        0.0264293511
 C          5.2427425394        0.4825673038       -1.1673022715
 C          6.5647504388        0.0648837957       -1.1645796242
 C          7.2763899186        0.0338872812        0.0249645017
 C          6.6773107396        0.4195938407        1.2151282763
 C          5.3568233673        0.8394552016        1.2193562172
 H          4.8541233281        1.1509222543        2.1196899367
 H          7.2339691860        0.3939190748        2.1379510057
 H          8.3041049570       -0.2932832697        0.0242528613
 H          7.0318041238       -0.2352626408       -2.0888075902
 H          4.6468270126        0.5168190751       -2.0655577524
 H          1.5873174559        0.8689848618        1.7307905287
 H          3.5264154381       -1.4714991699       -0.2442023709
 H          2.5495788509       -3.5419225139       -1.1722219018
 H          0.1689204087       -4.0459625905       -0.8566784237
 H         -1.9062992701       -2.5425085362        1.5462868447
 C         -2.2596506219       -3.7172832317       -0.2054540976
 C         -2.1239524546       -5.0516022852        0.4635293147
 C         -3.4643719704       -4.3872378834        0.3818720650
 H         -4.2049133342       -4.7953303139       -0.2893730882
 H         -3.8809807549       -3.9589668527        1.2819084176
 H         -1.9459478444       -5.9207679735       -0.1512236867
 H         -1.6306613046       -5.0805822307        1.4231647898
 H         -2.1889550928       -3.6733283487       -1.2862390849
