  62
        -98.94385982
 C          1.7911465631        0.6771379166        0.5127195479
 C          3.0726537518        0.7150374389        1.1117762414
 C          4.2142094681        0.5580995426        0.2008038967
 C          3.9874903277        0.4090082525       -1.1173344359
 C          5.0531946648        0.1857691559       -2.1500915423
 C          5.3112019327       -1.3119054703       -2.3667248424
 C          5.5185927233       -2.0964367864       -1.0711466677
 H          4.5872598623       -2.0946626254       -0.5000023746
 H          5.7224656675       -3.1332587990       -1.3474807378
 C          6.6563901042       -1.5700644968       -0.1851857844
 H          7.2484083964       -2.4183608214        0.1649135123
 H          7.3192240594       -0.9336846886       -0.7726766237
 C          6.1923797582       -0.8078958376        1.0575619970
 H          7.0551426646       -0.6738589079        1.7155802589
 H          5.4575887870       -1.4071189437        1.6015499952
 C          5.5905292005        0.5801076805        0.8038273283
 H          6.2726542598        1.1694857902        0.1876804838
 H          5.4853868949        1.0778233953        1.7724161744
 H          6.1895559147       -1.4224661210       -3.0052082458
 H          4.4536790955       -1.7391880746       -2.8918556595
 H          4.7188166519        0.6269923017       -3.0905210099
 H          5.9691299827        0.6808179039       -1.8333711804
 O          2.7434610039        0.3978117633       -1.6589114700
 C          1.6133798197        0.5208289998       -0.8623719626
 O          0.5389904970        0.4786264272       -1.4876066621
 O          3.2518527241        0.8696608778        2.3505045012
 C          0.5686759792        0.8279896843        1.3966188353
 C         -0.3551167677       -0.3600954362        1.2816497817
 C          0.1611239452       -1.6332537253        1.0602381161
 C         -0.6729058932       -2.7279742747        0.9310117004
 C         -2.0451441667       -2.5828381737        1.0365387587
 C         -2.5700512897       -1.3240162568        1.2871498356
 C         -1.7305063738       -0.2237245214        1.4092326373
 H         -2.1596036539        0.7486945248        1.5971947003
 N         -3.9736214798       -1.1806108652        1.3929539633
 S         -4.8107303339       -1.2369352644       -0.0598681793
 O         -6.2082415505       -1.0997381062        0.2816593303
 O         -4.4336280735       -2.4348634733       -0.7631726742
 C         -4.2566198138        0.2172324886       -0.9304464319
 C         -5.0434306863        1.3528124065       -0.9106942317
 C         -4.5626190612        2.5105730865       -1.4998551011
 C         -3.3006842312        2.5191996943       -2.0765018507
 C         -2.5210298521        1.3728535958       -2.0841485534
 C         -3.0031054500        0.2077322830       -1.5083385030
 H         -2.4111349633       -0.6931550014       -1.5022463452
 H         -1.5271318721        1.3705183051       -2.5031240082
 H         -2.9194356266        3.4251894348       -2.5214945615
 H         -5.1660280854        3.4042454359       -1.4997068813
 H         -6.0135576266        1.3027109530       -0.4428112303
 H         -4.2505819838       -0.3449556239        1.8908795951
 H         -2.7130982689       -3.4195647788        0.9148404363
 H         -0.2508622567       -3.7042437580        0.7449076699
 H          1.2323526374       -1.7562226165        0.9763774540
 H          0.9574566148        0.8607609630        2.4261649310
 C         -0.1300164179        2.1408846443        1.0981916568
 C         -0.7850330566        2.9271575244        2.1936784065
 C          0.4916956482        3.4159309981        1.5804191380
 H          0.4602660208        4.2818954480        0.9367263700
 H          1.4011531825        3.3343423602        2.1578486692
 H         -1.6957465171        3.4626933360        1.9701187545
 H         -0.7402320017        2.5274518142        3.1958117303
 H         -0.5920473726        2.1486023167        0.1170879124
