  62
        -98.94051843
 C         -2.2097116515       -1.1134942668        0.3691952646
 C         -2.5045028716       -0.2150386911       -0.6852075750
 C         -3.3459078723        0.9394700831       -0.3282812502
 C         -3.7245229754        1.1181871532        0.9493680543
 C         -4.6050375777        2.2300812379        1.4395469300
 C         -6.0846519708        1.8218252241        1.4132791626
 C         -6.5311108590        1.2047512211        0.0878834191
 H         -6.0167857835        0.2511683089       -0.0516539674
 H         -7.5974386292        0.9855343868        0.1742320404
 C         -6.2897637600        2.0942543014       -1.1396739725
 H         -7.1830705595        2.0746718096       -1.7674347253
 H         -6.1377441181        3.1272117557       -0.8246720555
 C         -5.1178457356        1.6563449106       -2.0200874646
 H         -5.2178805956        0.5951840801       -2.2617760541
 H         -5.1723622656        2.2125087968       -2.9597102046
 C         -3.7190244009        1.8870255613       -1.4341022399
 H         -3.6241261927        2.9230408762       -1.1018000902
 H         -2.9912918556        1.7167306765       -2.2332507543
 H         -6.2555707995        1.0906090969        2.2066650416
 H         -6.6894296281        2.7045624957        1.6283374311
 H         -4.3191711811        2.4656048859        2.4661680985
 H         -4.4482141591        3.1107040490        0.8194313068
 O         -3.3766616830        0.2652785174        1.9461651515
 C         -2.6296771034       -0.8687075391        1.6804422033
 O         -2.4070771755       -1.5790683203        2.6809055131
 O         -2.0950663019       -0.3463428405       -1.8687858604
 C         -1.3856321437       -2.3795250907        0.1829450895
 C          0.0812418343       -2.0612311538        0.3175034802
 C          0.8783791561       -2.7098974048        1.2521635924
 C          2.2136569021       -2.3723999724        1.3926760378
 C          2.7785813866       -1.3839496931        0.6068006242
 C          1.9883908774       -0.7270507590       -0.3275728586
 C          0.6531591907       -1.0705383211       -0.4699453910
 H          0.0411648063       -0.5568674807       -1.1973633724
 N          2.5536052904        0.2885701690       -1.1264941718
 S          3.1952053841        1.6029230124       -0.2943789451
 O          2.5282966143        1.8016888164        0.9729338585
 O          3.1497209320        2.7088602067       -1.2261076259
 C          4.8937767579        1.1404265107       -0.0277278495
 C          5.4085779153        1.1150749110        1.2534683664
 C          6.7361713359        0.7588899042        1.4346622036
 C          7.5202383504        0.4367979499        0.3374546296
 C          6.9880487242        0.4688827596       -0.9431542319
 C          5.6623452529        0.8252751220       -1.1314945402
 H          5.2098751255        0.8662347146       -2.1081846627
 H          7.6009571353        0.2174488747       -1.7936361495
 H          8.5524160800        0.1590518378        0.4814221866
 H          7.1513315126        0.7332758955        2.4293784239
 H          4.7580380321        1.3665522357        2.0759579680
 H          1.9191008544        0.6177436025       -1.8417069348
 H          3.8163421462       -1.1135108356        0.7152889531
 H          2.8205568019       -2.8823777756        2.1250348222
 H          0.4393828601       -3.4678091359        1.8843892627
 H         -1.6621136142       -3.0263383843        1.0301972594
 C         -1.7315492428       -3.1318437285       -1.0955624960
 C         -0.7766120687       -3.3290960155       -2.2311162101
 C         -1.1301720742       -4.4834309432       -1.3457904355
 H         -1.7606789708       -5.2673872157       -1.7367939482
 H         -0.3785189466       -4.8245828123       -0.6498064677
 H         -1.1801791223       -3.2957957137       -3.2317228954
 H          0.2135987493       -2.9097452612       -2.1485036139
 H         -2.7750973925       -3.0085964575       -1.3665100498
