  62
        -98.94594067
 C         -2.1092326524       -1.4934018418        0.0061957844
 C         -1.8336976343       -0.3741018959       -0.8158949695
 C         -2.8994670367        0.6362068206       -0.8925098956
 C         -4.0509877596        0.4347812231       -0.2265310714
 C         -5.1956993914        1.4042611556       -0.1794033199
 C         -5.0666636903        2.3588147002        1.0160919594
 C         -3.6872173977        3.0050006215        1.1457082602
 H         -3.7249966755        3.6798955033        2.0035490683
 H         -2.9512460684        2.2316845455        1.3778979006
 C         -3.2303663608        3.7818618221       -0.0968364153
 H         -2.8063106867        4.7353422237        0.2245744200
 H         -4.0899304652        4.0073875231       -0.7291502385
 C         -2.1587392050        3.0736204440       -0.9278001916
 H         -1.3423188017        2.7544546454       -0.2753322598
 H         -1.7527307622        3.7955634289       -1.6413601623
 C         -2.6352522740        1.8558811131       -1.7295516512
 H         -3.5169316946        2.1209215754       -2.3165396569
 H         -1.8355560192        1.5744244234       -2.4208078665
 H         -5.8276211174        3.1356343135        0.9206915517
 H         -5.2688069261        1.7967851606        1.9309350178
 H         -5.2252965352        1.9703093576       -1.1083684022
 H         -6.1228765390        0.8369078539       -0.0812276146
 O         -4.2881083080       -0.6682044945        0.5292395699
 C         -3.3202652149       -1.6470021860        0.6810565783
 O         -3.6517211061       -2.5893994049        1.4287940617
 H          1.4848546977       -2.4744152244       -0.8899159434
 C          1.4060886243       -1.9781910788        0.0642698010
 C          0.1966218033       -1.9574717970        0.7378418364
 C          0.1288535441       -1.2996236396        1.9638929100
 C          1.2427456588       -0.6829050627        2.4995251620
 C          2.4485758944       -0.6979309688        1.8193137050
 C          2.5236135895       -1.3431200617        0.5929467535
 N          3.7357737319       -1.3440130301       -0.1152952805
 S          4.6303880592        0.0683545647       -0.1548105103
 O          5.3814395037        0.0017129950       -1.3894255683
 O          5.4198465924        0.1722857421        1.0482639718
 C          3.4510273946        1.4069544971       -0.2135692065
 C          2.4660069031        1.3836336461       -1.1803800203
 C          1.5519352146        2.4226354948       -1.2307333478
 C          1.6394652752        3.4649448079       -0.3210301177
 C          2.6371855266        3.4766793008        0.6413873726
 C          3.5519637986        2.4377748978        0.6989072406
 H          4.3391208650        2.4031590691        1.4348105325
 H          2.7022402985        4.2886008357        1.3478815313
 H          0.9239443525        4.2712523868       -0.3627294756
 H          0.7676674428        2.3989325282       -1.9696039644
 H          2.4059653609        0.5622803727       -1.8755443923
 H          3.6790632961       -1.7685006515       -1.0293089212
 H          3.3284183090       -0.2230836603        2.2222005455
 H          1.1740313710       -0.1811566142        3.4528254690
 H         -0.8168886243       -1.2766256719        2.4887752050
 C         -1.0616885314       -2.5792217656        0.1838977457
 H         -1.4633627291       -3.2707603392        0.9377722549
 C         -0.8624704321       -3.3357951303       -1.1123668750
 C         -0.3074673403       -4.7275567944       -1.0909431087
 C         -1.7530823206       -4.5014587299       -1.4150304950
 H         -2.0836292528       -4.6473631892       -2.4325558599
 H         -2.4939843013       -4.7659853256       -0.6746222177
 H         -0.0642002188       -5.1532775309       -0.1292157031
 H          0.3533724777       -5.0343847173       -1.8877804127
 H         -0.5946540578       -2.6895192403       -1.9402975499
 O         -0.7604505529       -0.2238224007       -1.4544059575
