  62
        -98.94600957
 C          1.3649416993        1.1685113003       -0.0599931801
 C          2.1880436692        0.6011380404        0.9497421501
 C          2.9317010095       -0.6108920894        0.5851351101
 C          2.7898319799       -1.1186063093       -0.6523595700
 C          3.5249840003       -2.3158904391       -1.1799167499
 C          4.8384082704       -1.9033591188       -1.8592844395
 C          5.6963241600       -0.9543780287       -1.0221851292
 H          6.6090568401       -0.7572116285       -1.5886876790
 H          5.1737440298       -0.0010594188       -0.9149956793
 C          6.0636213997       -1.4892943688        0.3691015408
 H          5.9209050200       -2.5700853888        0.4000805007
 H          7.1236840197       -1.2977687086        0.5484756411
 C          5.2928697293       -0.8423327490        1.5215472507
 H          5.3595395691        0.2455441010        1.4411538408
 H          5.7773662492       -1.1308976290        2.4580501408
 C          3.8126424694       -1.2285164693        1.6339573503
 H          3.7167240196       -2.3160127194        1.6271236201
 H          3.4436427391       -0.8549811395        2.5933264302
 H          5.4076843206       -2.8064139187       -2.0870368095
 H          4.5994270305       -1.4063094887       -2.8024632396
 H          3.7289961102       -3.0021031192       -0.3600878199
 H          2.8907624306       -2.8175255092       -1.9132814201
 O          1.9799621800       -0.5619571294       -1.5868117701
 C          1.2474793297        0.5869693304       -1.3221862302
 O          0.5532836699        0.9578576604       -2.2905194703
 H         -1.3695973204        1.6291953599       -1.3829917507
 C         -1.7049483307        1.6160818398       -0.3571869008
 C         -0.8382099510        2.0152381598        0.6502106795
 C         -1.2788970513        1.9556059696        1.9674155593
 C         -2.5541680213        1.5077049393        2.2664061690
 C         -3.4072529410        1.0892726993        1.2608485487
 C         -2.9695608307        1.1358602795       -0.0562371012
 N         -3.7979508703        0.6278067194       -1.0793411314
 S         -4.2712226001       -0.9651352007       -0.8442814017
 O         -4.3756436996       -1.5469418906       -2.1641175418
 O         -5.4791227403       -0.9862782710       -0.0566331620
 C         -2.9458422701       -1.7219818005        0.0857554186
 C         -3.2026867103       -2.2276202107        1.3438864984
 C         -2.1594728104       -2.7705807206        2.0762843686
 C         -0.8806009503       -2.7933722303        1.5426552090
 C         -0.6393372801       -2.2859626401        0.2754947291
 C         -1.6785229600       -1.7438375302       -0.4627694711
 H         -1.5078935698       -1.3381782801       -1.4482600310
 H          0.3575861600       -2.2982705598       -0.1368839207
 H         -0.0640402903       -3.2052482902        2.1142337791
 H         -2.3442021606       -3.1672311107        3.0614772286
 H         -4.2105552805       -2.1818151709        1.7229946682
 H         -3.3878352501        0.7317136096       -1.9973930913
 H         -4.3944018910        0.7109238390        1.4724861084
 H         -2.8824577916        1.4702647292        3.2936038289
 H         -0.6039343516        2.2424079197        2.7603443795
 C          0.5802614490        2.4147293701        0.3236624098
 H          1.0490535587        2.7761314401        1.2482624700
 C          0.6461480390        3.5184825803       -0.7116595000
 C          0.2976384586        4.9168892002       -0.3012106900
 C          1.7200326188        4.5578429105       -0.6070693497
 H          2.1644421489        4.9320711006       -1.5172113495
 H          2.4145915886        4.4796062605        0.2166123105
 H         -0.2380779213        5.5405622601       -1.0002431300
 H          0.0275146683        5.0813036500        0.7308892200
 H          0.3640252693        3.2017441303       -1.7070982601
 O          2.2974999288        1.0921033303        2.1034206401
