  62
        -98.93171392
 C          1.8419913418        0.8409457502       -0.5960642172
 C          2.7361156764        1.0661646720        0.4827610197
 C          3.8539877295        0.1242848497        0.6295640767
 C          3.9521187183       -0.9043219390       -0.2313276475
 C          5.0638893373       -1.9146623944       -0.2638496709
 C          6.3175306046       -1.2981984229       -0.9167179618
 C          7.5088370489       -1.1425112677        0.0288038021
 H          7.9671379067       -2.1212694446        0.1854840284
 H          8.2444040739       -0.5107708987       -0.4736415590
 C          7.1958556711       -0.5463699604        1.4045432957
 H          6.7707374935       -1.3164850048        2.0498892909
 H          8.1502962908       -0.2585681342        1.8504429231
 C          6.2614601912        0.6704207695        1.4118195977
 H          6.6287421543        1.3760004021        2.1597650721
 H          6.2901244094        1.1831851254        0.4502051482
 C          4.7991448517        0.3535127496        1.7764656923
 H          4.3793626509        1.2081331263        2.3153350090
 H          4.7690607105       -0.5064732309        2.4514603818
 H          6.6289301980       -1.9158952256       -1.7604920231
 H          6.0450805342       -0.3229608833       -1.3256579768
 H          4.7109064959       -2.7660203870       -0.8464559767
 H          5.2838519560       -2.2513548834        0.7469204986
 O          3.0698688634       -1.1003570265       -1.2430079663
 C          1.9912943725       -0.2439027230       -1.4604934092
 O          1.2944658824       -0.5708747919       -2.4365599155
 O          2.6017891003        2.0275252452        1.2872284487
 C          0.6893948074        1.8243989900       -0.7046413586
 C         -0.3951207915        1.4569998078        0.2774483995
 C         -0.9289818021        2.4186576407        1.1285776640
 C         -1.9057915463        2.0862599843        2.0496955570
 C         -2.3835307643        0.7905181408        2.1219654255
 C         -1.8598712260       -0.1777679602        1.2733417722
 C         -0.8645633792        0.1530402306        0.3651170684
 H         -0.4598782861       -0.6146942614       -0.2781197168
 N         -2.3430169238       -1.5063907594        1.3028316405
 S         -3.2879218266       -1.9527884608       -0.0081751127
 O         -3.7572798174       -3.2878370739        0.2889125957
 O         -2.5417950019       -1.7767490178       -1.2249063767
 C         -4.6570568937       -0.8079761858        0.0475502390
 C         -4.4963427487        0.4498324898       -0.4991904935
 C         -5.5298496932        1.3661764519       -0.3840786149
 C         -6.6980557869        1.0119596844        0.2734730926
 C         -6.8444862349       -0.2556822701        0.8163669113
 C         -5.8129634955       -1.1747450110        0.7089356289
 H         -5.8829666177       -2.1723635641        1.1117139171
 H         -7.7551317507       -0.5294719765        1.3243757849
 H         -7.4992493642        1.7285875447        0.3613640286
 H         -5.4156977914        2.3510889455       -0.8072071355
 H         -3.5768836787        0.6873614513       -1.0095916298
 H         -2.8424620951       -1.7305071986        2.1534100476
 H         -3.1495569470        0.5238852362        2.8347799064
 H         -2.3015483795        2.8411662155        2.7111802737
 H         -0.5539873533        3.4299876055        1.0773299373
 H          1.1069551032        2.7888019793       -0.3708739322
 C          0.1611584056        2.0373541233       -2.1137180308
 C         -1.0250500535        1.3195686946       -2.6749688277
 C         -1.1298473081        2.7727949622       -2.3288633996
 H         -1.1877042624        3.4897715674       -3.1336746456
 H         -1.7002903195        3.0411129202       -1.4521301588
 H         -0.9812541727        1.0309174921       -3.7143024559
 H         -1.5210732292        0.5832444203       -2.0616876988
 H          0.9653658087        2.2425806549       -2.8133181167
