  62
        -98.94180006
 C         -1.9309889716       -1.0809758651       -0.0705561700
 C         -2.1549140190        0.3000635663       -0.2953124558
 C         -3.4041386209        0.8423237412        0.2601718413
 C         -4.2228414466        0.0557894858        0.9799716552
 C         -5.5115889207        0.4751399376        1.6332697288
 C         -6.7235456386        0.4562406223        0.6915793116
 C         -6.7556211859        1.5744867379       -0.3511266733
 H         -7.7539654168        1.5712175191       -0.7931319700
 H         -6.6231937152        2.5363826613        0.1452707179
 C         -5.7188101140        1.4243953880       -1.4731386861
 H         -5.3483112060        0.3968001832       -1.4906908672
 H         -6.1972458204        1.6084781333       -2.4377377866
 C         -4.5287530181        2.3781566668       -1.3681299633
 H         -4.8737968718        3.4081977624       -1.4821632551
 H         -3.8412186508        2.1604222350       -2.1893408974
 C         -3.7460867695        2.2680750852       -0.0531569154
 H         -2.8090894420        2.8193249660       -0.1645150868
 H         -4.3167676683        2.7110808530        0.7627479247
 H         -6.7593897676       -0.5127674121        0.1882704394
 H         -7.6188665295        0.5413496748        1.3117670013
 H         -5.6937985622       -0.2346019529        2.4431938180
 H         -5.3986786930        1.4707799914        2.0634762399
 O         -3.9477824790       -1.2538485875        1.2188730426
 C         -2.8216922687       -1.8535439872        0.6818885005
 O         -2.7213213292       -3.0696609571        0.9409513413
 O         -1.3683013128        1.0621645312       -0.9146949504
 C         -0.7308676752       -1.8344503271       -0.6234715983
 C          0.4780642477       -1.6815675467        0.2623520603
 C          1.1909977000       -2.7925708896        0.6966032579
 C          2.3116659913       -2.6432680903        1.4957305550
 C          2.7463293034       -1.3853777529        1.8729698235
 C          2.0412529853       -0.2686774839        1.4422573567
 C          0.9165455001       -0.4208018539        0.6445157311
 H          0.3741235714        0.4510138425        0.3094719273
 N          2.4796684914        1.0205830108        1.8084475034
 S          4.0454991676        1.4326659447        1.3744822057
 O          4.9713228293        0.7124558423        2.2119944469
 O          4.1016045606        2.8743631285        1.4527603898
 C          4.2011095408        0.8913445830       -0.3168143711
 C          3.7250044804        1.7177843737       -1.3153276504
 C          3.7721852753        1.2788442300       -2.6284772528
 C          4.2786203279        0.0208166673       -2.9172939545
 C          4.7512342332       -0.7974285689       -1.9031658070
 C          4.7146871085       -0.3610127642       -0.5884224118
 H          5.0794410575       -0.9637105522        0.2266266714
 H          5.1441918626       -1.7749748728       -2.1310650631
 H          4.3027295318       -0.3236687263       -3.9387649006
 H          3.4052593287        1.9142269252       -3.4183378502
 H          3.3376743468        2.6885383248       -1.0497130980
 H          1.8432892060        1.7469864607        1.5109556326
 H          3.6191110962       -1.2493302728        2.4910521038
 H          2.8519049473       -3.5156581905        1.8304360990
 H          0.8531406011       -3.7790776961        0.4146880271
 H         -1.0263787556       -2.8948867570       -0.5968207977
 C         -0.4426082529       -1.4868817960       -2.0794308850
 C          0.7374075964       -0.6864973553       -2.5321688242
 C          0.6885738940       -2.1582869735       -2.8012554763
 H          0.5270411097       -2.4992371305       -3.8123834373
 H          1.3397171158       -2.7910541762       -2.2173942251
 H          0.5876153418        0.0001934721       -3.3509008130
 H          1.4321086208       -0.3276756704       -1.7896540674
 H         -1.3602896464       -1.3441314821       -2.6418678773
