  62
        -98.94789378
 C         -0.9145928436       -1.1170983168        0.6891808885
 C         -1.4023632850       -0.9202922531       -0.6254811455
 C         -2.1442949862        0.3284894250       -0.8503956063
 C         -2.2918253709        1.2004709510        0.1633943271
 C         -3.0589956342        2.4885188217        0.0819123424
 C         -4.5291260899        2.2883014947        0.4759201400
 C         -5.2033176135        1.1120032422       -0.2297154808
 H         -4.7353383371        0.1820547060        0.1007591121
 H         -6.2432027634        1.0857748506        0.1026929758
 C         -5.1588449282        1.1817614167       -1.7625066110
 H         -6.1458059134        0.9270041708       -2.1543365453
 H         -4.9368347179        2.2007343634       -2.0818389769
 C         -4.1608262447        0.2209942343       -2.4120392238
 H         -4.3196523379       -0.7892554164       -2.0265048932
 H         -4.3609300334        0.1963481203       -3.4865962426
 C         -2.6792777991        0.5758278387       -2.2317625287
 H         -2.0936656156       -0.0672485548       -2.8958879606
 H         -2.5059138411        1.6120529252       -2.5317784277
 H         -5.0735292135        3.2080766292        0.2546978402
 H         -4.5775224123        2.1140997019        1.5531085494
 H         -2.6042542043        3.2068392192        0.7663550816
 H         -2.9919227362        2.8795960152       -0.9318924408
 O         -1.7904172022        0.9859422411        1.4068360880
 C         -1.0794819627       -0.1679975092        1.6963201807
 O         -0.6502919798       -0.2284165375        2.8661441047
 H          1.4511735279       -0.3052641030        0.3624562939
 C          1.8103463370       -1.2178921363       -0.0910076044
 C          1.1248074631       -2.4042882917        0.1361892764
 C          1.6106537509       -3.5707427319       -0.4403608528
 C          2.7365809260       -3.5358166276       -1.2450637634
 C          3.3899848887       -2.3445181604       -1.5021194453
 C          2.9179446806       -1.1734772822       -0.9203239803
 N          3.5541064485        0.0589148692       -1.1368445656
 S          2.6221761243        1.4387590518       -1.3149162633
 O          1.3699732836        1.1671937742       -1.9804111613
 O          3.5030968240        2.3756274268       -1.9830896956
 C          2.3337334203        2.0135457146        0.3438929975
 C          1.0699404579        2.4487828729        0.6882743069
 C          0.8476776839        2.9188231030        1.9722983060
 C          1.8912914023        2.9487393934        2.8836511520
 C          3.1573365195        2.5154368513        2.5199339323
 C          3.3858822579        2.0440221156        1.2372746647
 H          4.3542434032        1.6953837903        0.9193712869
 H          3.9644649821        2.5396620342        3.2342699484
 H          1.7121366248        3.3082860236        3.8845425836
 H         -0.1402280264        3.2417324498        2.2594977148
 H          0.2829085821        2.3901537669       -0.0488809129
 H          4.3172392105        0.0356313461       -1.7978965601
 H          4.2537015001       -2.3160735386       -2.1488960692
 H          3.1017255075       -4.4482638643       -1.6917003379
 H          1.1027449043       -4.5055984424       -0.2684693746
 C         -0.1023312405       -2.3570371413        1.0152199788
 H          0.2294937061       -2.2385413491        2.0575956461
 C         -0.9633008022       -3.5992934072        0.9145835141
 C         -0.6903133706       -4.7841637812        1.7904675773
 C         -1.8925668549       -3.9265275927        2.0434767184
 H         -2.8697368470       -4.3217022815        1.8095872763
 H         -1.8817098522       -3.2671364938        2.8993590977
 H         -0.8452654276       -5.7723417878        1.3840744267
 H          0.1340501719       -4.7148238390        2.4839101916
 H         -1.3187145212       -3.7763420630       -0.0941186738
 O         -1.2320644773       -1.7459593846       -1.5603551816
