  62
        -98.94363246
 C         -1.8166533364       -0.3449659958       -0.2839392605
 C         -2.9758027543       -0.6633841412       -1.0300269142
 C         -4.2446481057       -0.6287385613       -0.2909453447
 C         -4.2330044616       -0.3265642972        1.0205139383
 C         -5.4562830766       -0.2051374280        1.8814918623
 C         -5.9856056332        1.2358052026        1.8942736515
 C         -6.1332308620        1.8519813343        0.5030835272
 H         -6.5415934436        2.8563907747        0.6339555191
 H         -5.1429986214        1.9632717019        0.0555746463
 C         -7.0330007857        1.0551540219       -0.4518279933
 H         -7.6582625571        0.3656069499        0.1165234730
 H         -7.7010422017        1.7497475953       -0.9654822081
 C         -6.2792652972        0.2801886718       -1.5342374702
 H         -5.5829169696        0.9491025123       -2.0462760930
 H         -7.0061615105       -0.0639995629       -2.2748518147
 C         -5.4995177949       -0.9499928263       -1.0530901821
 H         -6.1553416174       -1.5940030007       -0.4635371850
 H         -5.1777136367       -1.5062092066       -1.9385911280
 H         -6.9516741217        1.2439111839        2.4022440669
 H         -5.2929762022        1.8535338799        2.4703728046
 H         -6.2239103642       -0.8819154336        1.5112511114
 H         -5.1900716507       -0.4941109311        2.8995648261
 O         -3.0964428685       -0.0480411595        1.7082808826
 C         -1.8609998156       -0.0420279677        1.0770985196
 O         -0.9038809530        0.2395035663        1.8215121646
 O         -2.9493010676       -0.9678295533       -2.2535996061
 C         -0.4696121519       -0.3456523367       -0.9820154118
 C          0.4679612356       -1.3293748032       -0.3269407341
 C         -0.0002872453       -2.6013758026       -0.0059804622
 C          0.8270919526       -3.5280845456        0.5964095456
 C          2.1456017448       -3.2138785050        0.8763844504
 C          2.6278607861       -1.9537381780        0.5477655809
 C          1.7897319844       -1.0203438840       -0.0480910245
 H          2.1842161741       -0.0494891134       -0.2960508812
 N          3.9535411402       -1.5988059768        0.8323810009
 S          4.8241316460       -0.6460390310       -0.2286550418
 O          4.4694683632       -0.9137838583       -1.6028736098
 O          6.2082727504       -0.8836994916        0.1234552566
 C          4.4053190251        1.0307524957        0.1988153206
 C          4.3544537386        1.9775796341       -0.8051432776
 C          4.0734765254        3.2938189382       -0.4735133963
 C          3.8495160731        3.6384017315        0.8503591506
 C          3.9070826104        2.6759923774        1.8469225231
 C          4.1921561677        1.3592381862        1.5227130459
 H          4.2385817250        0.5874842418        2.2726809176
 H          3.7281980746        2.9465706251        2.8751505912
 H          3.6269522582        4.6622670479        1.1065972281
 H          4.0284755158        4.0437105598       -1.2474722386
 H          4.5236230333        1.6629875538       -1.8228266714
 H          4.5186904808       -2.3319618424        1.2346038603
 H          2.7942691858       -3.9370469707        1.3470581002
 H          0.4458469366       -4.5070856166        0.8456983516
 H         -1.0282935866       -2.8517330313       -0.2306297755
 H         -0.6694123707       -0.6989720790       -2.0052753793
 C          0.0822789180        1.0630191963       -1.0531659726
 C          0.9838124444        1.4704887468       -2.1787048597
 C         -0.4225239688        1.9842301562       -2.1216471674
 H         -0.5829353089        3.0227225751       -1.8743544511
 H         -1.1437087278        1.5844213253       -2.8196565881
 H          1.7887308378        2.1576882053       -1.9663143085
 H          1.2276231191        0.7247833945       -2.9206252495
 H          0.2662601839        1.4862459931       -0.0717053531
