  62
        -98.94090961
 C          2.3884653252        1.2571158139        0.1339134033
 C          2.2756966313       -0.1534557776        0.0422564787
 C          3.3982794755       -0.9196703722        0.6060417417
 C          4.4202312916       -0.2836341834        1.2041964831
 C          5.6249675185       -0.9292520582        1.8329899978
 C          6.7408889681       -1.2697950824        0.8356466538
 C          6.4492202401       -2.4520859679       -0.0894284092
 H          7.3891371327       -2.7152900145       -0.5786160605
 H          6.1407729084       -3.3114416491        0.5068021186
 C          5.3951707088       -2.1678421559       -1.1686393109
 H          5.2624657151       -1.0884936093       -1.2732819398
 H          5.7501043392       -2.5408063398       -2.1320107442
 C          4.0327310834       -2.8112646992       -0.9088640645
 H          3.3545773615       -2.5185005778       -1.7149297653
 H          4.1299770300       -3.8989897576       -0.9325466083
 C          3.3871540762       -2.4075231643        0.4234126822
 H          3.8979501204       -2.8970879684        1.2523599433
 H          2.3437973405       -2.7338849534        0.4138431731
 H          6.9563769134       -0.3824329387        0.2359197997
 H          7.6360592632       -1.5035292015        1.4164008099
 H          5.3218458152       -1.8315734302        2.3647936684
 H          6.0178411534       -0.2132875522        2.5581151520
 O          4.4627723488        1.0696149245        1.3247736959
 C          3.4648651417        1.8655467125        0.7883121689
 O          3.6430947058        3.0873900179        0.9636455628
 O          1.3082372048       -0.7624861182       -0.4836283536
 C          1.3301616983        2.2006499345       -0.4154734866
 C         -0.0360809326        1.7673988453        0.0524203872
 C         -0.4307291971        2.0539793637        1.3556141284
 C         -1.6616946971        1.6378208894        1.8266323455
 C         -2.5195203859        0.9193461771        1.0120140534
 C         -2.1246378702        0.6089390513       -0.2819601200
 C         -0.8974700742        1.0498875850       -0.7608100983
 H         -0.5935942821        0.7915320916       -1.7632403298
 N         -2.9808547217       -0.1256225997       -1.1173354425
 S         -3.8399261737       -1.4219763195       -0.4915221545
 O         -3.1544430361       -2.0594932668        0.6081891862
 O         -4.1386323802       -2.2570168990       -1.6350573531
 C         -5.3533549928       -0.6758890673        0.0828634727
 C         -5.7963579423       -0.9177356929        1.3683615783
 C         -6.9816402714       -0.3357470039        1.7906462531
 C         -7.7006020259        0.4724968672        0.9236812270
 C         -7.2443409296        0.7028120392       -0.3656797649
 C         -6.0608461448        0.1232282829       -0.7938540870
 H         -5.6744063307        0.2748419844       -1.7877304574
 H         -7.8064611212        1.3315995354       -1.0372480097
 H         -8.6220288128        0.9249328828        1.2547754108
 H         -7.3379651306       -0.5149858169        2.7923745290
 H         -5.2017309866       -1.5490506350        2.0097623919
 H         -2.5673787579       -0.3656242325       -2.0067894255
 H         -3.4743442772        0.5791192926        1.3778695000
 H         -1.9566130970        1.8705723675        2.8386712892
 H          0.2466138375        2.5998129579        1.9984202122
 H          1.5526728855        3.1741172080        0.0495915501
 C          1.4008819789        2.4148032937       -1.9207885179
 C          2.7283928085        2.5598478091       -2.6017211242
 C          1.8700730997        1.3644017132       -2.8800274946
 H          1.3819999167        1.2986470146       -3.8419415226
 H          2.1701873266        0.4088385614       -2.4801778661
 H          2.8362050996        3.3097393730       -3.3706598330
 H          3.6125427060        2.4248445626       -1.9953363489
 H          0.6065759624        3.0683037931       -2.2688950609
