  62
        -98.93758079
 C          1.2271203676        1.3824678642        0.5723998126
 C          2.0753873876        1.0965204541       -0.5231059592
 C          3.2436625507        0.2385811766       -0.2406908981
 C          3.3976510604       -0.2777208308        0.9899570874
 C          4.4707685967       -1.2171977161        1.4669307336
 C          4.0124059642       -2.6794337780        1.3311653851
 C          4.3053131904       -3.3228961619       -0.0233907564
 H          5.3815250426       -3.4818191887       -0.1209267675
 H          3.8255509110       -4.3044651191       -0.0259115034
 C          3.8131921225       -2.5344848011       -1.2397968422
 H          2.8070944308       -2.1547744313       -1.0478901989
 H          3.7372397220       -3.2283292947       -2.0795414975
 C          4.7488132458       -1.3804515658       -1.6299099222
 H          4.9842986127       -1.4511697501       -2.6938997372
 H          5.6926442263       -1.4913500489       -1.0962678617
 C          4.1834403253        0.0272142358       -1.3965475206
 H          5.0155031905        0.7333462077       -1.3010598973
 H          3.6096951097        0.3362998495       -2.2762350200
 H          4.5053708804       -3.2751656269        2.1023528498
 H          2.9370672746       -2.7162760456        1.5276717847
 H          5.4006085417       -1.0452478226        0.9329680198
 H          4.6267074065       -0.9988871368        2.5255902710
 O          2.5115734734       -0.0418952475        1.9974135242
 C          1.4085872744        0.7697761398        1.8138467803
 O          0.6681244135        0.8641161877        2.8142987605
 O          1.8791802468        1.5273234648       -1.6889809690
 C         -0.0163726815        2.2403611451        0.4158222905
 C         -0.8231139337        1.7514224686       -0.7625765311
 C         -1.3224338654        2.5663443810       -1.7692238021
 C         -2.0777529652        2.0221450310       -2.7944034135
 C         -2.3724339950        0.6712505746       -2.8259948900
 C         -1.8749736852       -0.1526655528       -1.8223811349
 C         -1.1049291792        0.3923849532       -0.8099226690
 H         -0.6937647302       -0.2591684887       -0.0535808980
 N         -2.1468334474       -1.5294211257       -1.8019185335
 S         -2.3501137438       -2.2941991524       -0.3300335371
 O         -1.0742524704       -2.5254188813        0.3012190107
 O         -3.1165756249       -3.4807805885       -0.6472162490
 C         -3.3488265144       -1.1733594212        0.6351905237
 C         -4.6409289230       -0.9439334097        0.2020581400
 C         -5.4352387785       -0.0484852023        0.8981864572
 C         -4.9252869782        0.6046367089        2.0103279915
 C         -3.6297253342        0.3591317413        2.4365923099
 C         -2.8307003176       -0.5384337580        1.7450104536
 H         -1.8166301128       -0.7408893306        2.0546351864
 H         -3.2254802664        0.8637931691        3.2998749949
 H         -5.5400328422        1.3072088499        2.5504064979
 H         -6.4449841120        0.1403317657        0.5714565007
 H         -5.0053061520       -1.4784001562       -0.6601091259
 H         -2.8063082780       -1.8491513290       -2.4955407707
 H         -2.9670210520        0.2529106847       -3.6234249189
 H         -2.4499231875        2.6632903607       -3.5789274226
 H         -1.1026198722        3.6211153038       -1.7659513382
 H         -0.6119662745        2.0294705010        1.3205409155
 C          0.2356756062        3.7404772128        0.4109790643
 C          1.4771870225        4.3193614925        1.0201929700
 C          1.2686883628        4.3853323246       -0.4615458392
 H          1.0382044017        5.3448347336       -0.9013470076
 H          1.8572097153        3.7419499389       -1.0951320425
 H          1.3904105599        5.2282096524        1.5968011059
 H          2.2155403571        3.6284583620        1.4018318815
 H         -0.6793249994        4.3017278195        0.5735939756
