  62
        -98.94647398
 C         -2.2992711769       -0.6145997100       -0.0764885621
 C         -1.4012017377       -0.8374116882        0.9903028201
 C         -0.6542484373       -2.1065865487        0.9684508654
 C         -0.8300740683       -2.9463781997       -0.0662845425
 C         -0.1071551730       -4.2394120127       -0.3249674562
 C          1.1345824626       -3.9981441666       -1.2017616307
 C          2.4137757460       -3.6866779926       -0.4275258380
 H          2.7363315617       -4.5789052098        0.1141945286
 H          3.1853941227       -3.4467371759       -1.1629038353
 C          2.2962021597       -2.5179862017        0.5539855524
 H          1.7293122111       -1.7144719860        0.0803590628
 H          3.3007518668       -2.1316836143        0.7416095028
 C          1.6557460733       -2.9128554010        1.8924304379
 H          2.2880437045       -2.5592863146        2.7092144039
 H          1.6326349853       -4.0003490466        1.9654519754
 C          0.2498223525       -2.3502078178        2.1464087612
 H         -0.2727723707       -3.0080196358        2.8494130835
 H          0.3336717297       -1.3741608716        2.6333083125
 H          1.3122707059       -4.8852345114       -1.8137277747
 H          0.9163110642       -3.1676691974       -1.8794160779
 H          0.1609234534       -4.7252445216        0.6089307829
 H         -0.8016204708       -4.8816754096       -0.8707204430
 O         -1.6950004422       -2.6864041713       -1.0856339829
 C         -2.4361187634       -1.5208145456       -1.1258421389
 O         -3.1749452159       -1.4081243752       -2.1268553732
 H         -0.8544488199        0.8349032721       -1.6071592200
 C         -0.9592958786        1.7116809484       -0.9851037049
 C         -2.0697572898        1.8357520282       -0.1598201912
 C         -2.1956917665        2.9828928045        0.6127903295
 C         -1.2119533516        3.9570566619        0.5817869345
 C         -0.0785902616        3.7995165703       -0.1952242562
 C          0.0490324002        2.6612132983       -0.9837357853
 N          1.1849805410        2.4482138047       -1.7889813824
 S          2.0707564416        1.0384481146       -1.6094793202
 O          3.1517363253        1.1609963744       -2.5637993104
 O          1.2145623657       -0.1095805015       -1.7604642978
 C          2.7444755544        1.1112103535        0.0416591455
 C          4.0982357081        1.3401952621        0.1956549801
 C          4.6264097673        1.4182252941        1.4740289233
 C          3.7937347287        1.2744544846        2.5736039215
 C          2.4364639477        1.0526376503        2.4016369863
 C          1.9013968970        0.9691115654        1.1255520417
 H          0.8483180060        0.7900148894        0.9764199316
 H          1.7789530726        0.9419013104        3.2492903323
 H          4.2029431481        1.3347669694        3.5697634792
 H          5.6822115779        1.5905738229        1.6081035912
 H          4.7053740628        1.4433572783       -0.6891238086
 H          1.8163327611        3.2365222436       -1.8250643813
 H          0.7009240330        4.5463330820       -0.1942562930
 H         -1.3200456255        4.8428185354        1.1889675553
 H         -3.0579649852        3.1098521613        1.2466267546
 C         -3.0621374273        0.6969156001       -0.1517456320
 H         -3.5895540564        0.6891065855       -1.1171051398
 C         -4.0799219109        0.7885778388        0.9655750915
 C         -5.3404010388        1.5765158075        0.7769550491
 C         -5.3900508288        0.0792455661        0.8091033127
 H         -5.8201518219       -0.4066487287        1.6719259786
 H         -5.5577405431       -0.4500766739       -0.1179778783
 H         -5.4869868253        2.0663772322       -0.1738766315
 H         -5.7418741786        2.1179193364        1.6202420670
 H         -3.6205823562        0.7801443007        1.9471369585
 O         -1.2188452387       -0.0045029716        1.9188842323
