  62
        -98.94274494
 C         -1.5798104302       -1.2462331084        0.0679144034
 C         -1.7581540698       -0.2211043226        1.0342628118
 C         -2.3482477310        1.0356364018        0.5637296504
 C         -2.6443578295        1.1674648343       -0.7417472911
 C         -3.2781172752        2.3792503407       -1.3596919504
 C         -4.8094734230        2.2722413804       -1.3615570604
 C         -5.4016321975        1.8820918958       -0.0072768877
 H         -6.4877620833        1.8675353763       -0.1196726053
 H         -5.0888447614        0.8643382480        0.2364400135
 C         -5.0179917696        2.8195198423        1.1460900367
 H         -4.6507610815        3.7657241736        0.7472729725
 H         -5.9132500549        3.0392276437        1.7313651691
 C         -3.9832007403        2.2421232820        2.1133513687
 H         -3.9475030602        2.8853956701        2.9964053810
 H         -4.3036009879        1.2505930404        2.4423114018
 C         -2.5518452636        2.1308918788        1.5729005857
 H         -2.2357486039        3.0922269467        1.1616494183
 H         -1.8970988525        1.8856745536        2.4143402748
 H         -5.1021216893        1.5174143140       -2.0951708179
 H         -5.2209901693        3.2320329526       -1.6792051628
 H         -2.9640508498        3.2638974052       -0.8085215469
 H         -2.9220249843        2.4625441793       -2.3882666570
 O         -2.4337725562        0.1811823799       -1.6456222478
 C         -1.8633279050       -1.0297655464       -1.2804927751
 O         -1.6805324288       -1.7978583684       -2.2485526795
 H          0.5960548342       -1.6330630175       -1.4828254666
 C          1.1866298955       -1.7731619874       -0.5886191197
 C          0.5886839400       -2.2708476304        0.5607888796
 C          1.3710321436       -2.4395968966        1.6961310422
 C          2.7115799260       -2.0930785020        1.6891480491
 C          3.2858052671       -1.5357228816        0.5602367033
 C          2.5117005606       -1.3751921551       -0.5806279904
 N          3.0680656853       -0.6792883018       -1.6962257270
 S          2.5755817454        0.9392920695       -1.6352815931
 O          1.1324793108        1.0602118178       -1.6065314640
 O          3.2330209394        1.5961475817       -2.7445604303
 C          3.2631330904        1.4826742880       -0.0894558871
 C          2.4624974810        1.4716721517        1.0358382217
 C          3.0131314203        1.8474551589        2.2507001658
 C          4.3462927550        2.2235372546        2.3173376422
 C          5.1358114205        2.2311997732        1.1769852265
 C          4.5923979033        1.8542823554       -0.0408099343
 H          5.1636646393        1.8443279909       -0.9543277264
 H          6.1712401639        2.5258054242        1.2340001203
 H          4.7706423045        2.5126230901        3.2658168403
 H          2.3970694702        1.8366991059        3.1355534964
 H          1.4302540087        1.1677776516        0.9431158770
 H          2.7540578682       -1.0583241696       -2.5810634547
 H          4.3146782914       -1.2151856192        0.5520155977
 H          3.3053039104       -2.2273166869        2.5796906983
 H          0.9134140422       -2.8160456307        2.5986455310
 C         -0.9025945385       -2.5113145285        0.5745968272
 H         -1.2119383287       -2.6155966715        1.6238317614
 C         -1.2637357486       -3.7832764069       -0.1615822550
 C         -1.0803041858       -5.0985166318        0.5332381466
 C         -2.4596574029       -4.5727660187        0.2752999684
 H         -3.0644006934       -5.0470744942       -0.4826548582
 H         -3.0277021359       -4.1967944166        1.1136345110
 H         -0.7341895480       -5.9403734549       -0.0461543387
 H         -0.7151714644       -5.0827572025        1.5487226313
 H         -1.0596543634       -3.7407326392       -1.2232205970
 O         -1.4282990313       -0.3589344676        2.2431088865
