  62
        -98.93835291
 C         -1.8257644679       -0.4073135939       -0.0048441918
 C         -2.9231386390       -0.4776600836        0.8936411509
 C         -4.0719953664        0.3990241219        0.6185371141
 C         -4.0300473553        1.2199920959       -0.4442358440
 C         -5.0568798888        2.2265065313       -0.8993790542
 C         -6.5317860735        1.8057657778       -0.8500055130
 C         -6.7915245605        0.3184237521       -1.1306649174
 H         -7.5588681101        0.2317611554       -1.9021932712
 H         -5.8864483701       -0.1530795557       -1.5173736875
 C         -7.2776043706       -0.4460325606        0.1030513916
 H         -8.0159596837        0.1659417564        0.6257493101
 H         -7.7827578620       -1.3575981195       -0.2253105687
 C         -6.1863263535       -0.8633285826        1.0881224672
 H         -5.5706535026       -1.6515602882        0.6466054173
 H         -6.6731249840       -1.2924057639        1.9671877775
 C         -5.2435749664        0.2608919538        1.5476595727
 H         -5.7778385177        1.2007609939        1.6637990961
 H         -4.8272036063       -0.0248441503        2.5174203658
 H         -6.9516771041        2.0624888901        0.1215449025
 H         -7.0572590266        2.4133131770       -1.5888617945
 H         -4.9246030096        3.1374130731       -0.3079561037
 H         -4.7799067354        2.4693235226       -1.9282437956
 O         -2.9555403577        1.2626975392       -1.2787874726
 C         -1.8381379041        0.4638789646       -1.0924820576
 O         -0.9585428806        0.6418826419       -1.9607216197
 H          0.8130510189        0.7319291492       -0.6773466047
 C          1.1463645852        0.4274470227        0.3035866331
 C          0.4857506538       -0.6031357764        0.9572983299
 C          0.9237201666       -0.9746718604        2.2227343629
 C          1.9958095067       -0.3308261583        2.8168727410
 C          2.6524770651        0.6948911512        2.1612945456
 C          2.2156433165        1.0780026353        0.8998839678
 N          2.8912990337        2.1107239808        0.2144536280
 S          4.5156918420        1.8081727193       -0.0766246384
 O          5.2683115038        2.0724693938        1.1240920951
 O          4.8650873553        2.6047924346       -1.2313255961
 C          4.5755791324        0.0674788304       -0.4616614786
 C          4.0328486204       -0.3504776820       -1.6604444395
 C          4.0004019606       -1.7055114942       -1.9449423013
 C          4.5016512625       -2.6151929326       -1.0264982449
 C          5.0427788680       -2.1794332342        0.1727367540
 C          5.0787634379       -0.8249672602        0.4626125683
 H          5.4891779710       -0.4430245727        1.3827796492
 H          5.4315420757       -2.8899271543        0.8840987970
 H          4.4708699919       -3.6704415015       -1.2480752095
 H          3.5797228506       -2.0445818739       -2.8782847286
 H          3.6533809866        0.3842769294       -2.3529246640
 H          2.4305702519        2.3681791746       -0.6474468581
 H          3.4950144253        1.2037075934        2.6012115806
 H          2.3243407219       -0.6311979765        3.8000003434
 H          0.4109856960       -1.7686795400        2.7454354457
 C         -0.6536624051       -1.3299304902        0.2841225401
 H         -1.0439567913       -2.0693773471        0.9959505823
 C         -0.1475754316       -2.0641970272       -0.9434868527
 C          0.6407789885       -3.3247554391       -0.7605607309
 C         -0.7514339789       -3.3844115440       -1.3123071706
 H         -0.8863803105       -3.6139919155       -2.3586613002
 H         -1.5367035424       -3.7695862973       -0.6781001626
 H          1.4676020374       -3.5138372880       -1.4267377759
 H          0.8006630391       -3.6711894665        0.2488904293
 H          0.1361588005       -1.4036877566       -1.7522115042
 O         -2.9396723955       -1.2453113220        1.8918338450
