  62
        -98.93897361
 C         -1.4402558496       -1.6451125106       -0.4681444711
 C         -1.4026843299       -0.2574250004       -0.7409705705
 C         -2.6597148200        0.4886697892       -0.5328168297
 C         -3.7607139697       -0.1622595812       -0.1162658296
 C         -5.1700478897        0.3269167384        0.1455029211
 C         -5.4663280600        1.8188255583        0.2760393519
 C         -4.8554516197        2.4888484479        1.5066400920
 H         -5.0455025499        3.5622489179        1.4395779125
 H         -5.3699960593        2.1156653574        2.3958325620
 C         -3.3596140696        2.2601675881        1.7116092813
 H         -3.0639939594        2.7870223077        2.6230244415
 H         -3.1709919693        1.1979597880        1.8813910108
 C         -2.4595992901        2.7497095588        0.5786337013
 H         -2.6590394103        3.8046571588        0.3823277418
 H         -1.4244507299        2.6575760588        0.9178848809
 C         -2.5765065804        1.9729328293       -0.7433774590
 H         -3.4139850806        2.3253012694       -1.3400961486
 H         -1.6617418306        2.1482752298       -1.3169092393
 H         -6.5529002400        1.9133759681        0.3551170423
 H         -5.1710699104        2.3415505088       -0.6287679480
 H         -5.7819445099       -0.0772726113       -0.6685965089
 H         -5.4966455293       -0.1838998720        1.0569720610
 O         -3.7558932294       -1.5107107713        0.1038575098
 C         -2.6124448293       -2.2720793910       -0.0417170410
 O         -2.7665548790       -3.4807189911        0.2283824885
 H          1.6087361003       -0.5091884701       -0.2583813516
 C          1.5666244707       -1.1630173905        0.5953894881
 C          0.7002463809       -2.2467539106        0.5954603279
 C          0.6385893414       -3.0550597412        1.7265038976
 C          1.4324096518       -2.7877868915        2.8266264874
 C          2.3037994716       -1.7133682014        2.8187569176
 C          2.3641574110       -0.8919857608        1.6979346680
 N          3.2004110508        0.2289506893        1.6839738382
 S          3.8582308002        0.8353272801        0.2735647983
 O          4.2062160201       -0.2175968494       -0.6519961823
 O          4.9626024802        1.6536095501        0.7345090883
 C          2.6140053298        1.9044394802       -0.4120956108
 C          2.3241279193        1.8366244507       -1.7584821308
 C          1.3914259190        2.7127280608       -2.2881139801
 C          0.7708860491        3.6383974003       -1.4657386594
 C          1.0753045995        3.6955830597       -0.1143306195
 C          2.0065889399        2.8219350197        0.4209149898
 H          2.2675315402        2.8357683793        1.4664666597
 H          0.5864609096        4.4165116794        0.5217367210
 H          0.0408128188        4.3168542303       -1.8791903289
 H          1.1457493586        2.6620303312       -3.3369678500
 H          2.8217632493        1.0931772011       -2.3614670213
 H          3.8196057010        0.3257592191        2.4743357980
 H          2.9266584718       -1.5048595316        3.6754360275
 H          1.3765485822       -3.4242951719        3.6969719672
 H         -0.0495371184       -3.8887331113        1.7379850274
 C         -0.2072135994       -2.5293306103       -0.5781748319
 H         -0.5721382492       -3.5607472804       -0.4801319722
 C          0.5009008001       -2.3956052196       -1.9105453621
 C          1.4761533601       -3.4558293492       -2.3210413029
 C          0.1574564899       -3.3371573291       -3.0235134024
 H          0.1421735795       -2.9572295287       -4.0340414122
 H         -0.5927724999       -4.0901635893       -2.8291096225
 H          2.3723614499       -3.1566669288       -2.8429893431
 H          1.6192946405       -4.2889117295       -1.6490167633
 H          0.7271178598       -1.3732174994       -2.1823029717
 O         -0.3830699802        0.3545681399       -1.1500048505
