  62
        -98.94183983
 C          1.9776336272        1.0049932326        0.3416050653
 C          2.2507563184       -0.1337051427       -0.4562376187
 C          3.4970217775       -0.8486203574       -0.1416544617
 C          4.2636168792       -0.4516080826        0.8887819998
 C          5.5397458495       -1.1015043464        1.3497976288
 C          6.7847756665       -0.6520636037        0.5728279175
 C          6.8917955652       -1.1924707283       -0.8537472717
 H          7.9051083715       -0.9808994557       -1.2009342612
 H          6.7725143295       -2.2763424063       -0.8401712371
 C          5.8926566971       -0.5745347915       -1.8418171694
 H          6.4119514134       -0.3068945461       -2.7648336232
 H          5.4902498418        0.3500722461       -1.4214731764
 C          4.7308046413       -1.4910629279       -2.2253751587
 H          5.1129377806       -2.3601414419       -2.7655370030
 H          4.0682018009       -0.9411152642       -2.8985146777
 C          3.8957156634       -1.9838054920       -1.0362908651
 H          2.9814714566       -2.4394432052       -1.4246858980
 H          4.4487048686       -2.7360286508       -0.4740816475
 H          7.6586717350       -0.9915980970        1.1336058347
 H          6.8076381932        0.4399963074        0.5518388259
 H          5.4426256438       -2.1859320026        1.2889320002
 H          5.6686007073       -0.8225240036        2.3978615738
 O          3.9392511194        0.6141594522        1.6677572396
 C          2.8162158061        1.3769858278        1.3973256036
 O          2.6693360256        2.3533887356        2.1595992676
 O          1.5081749335       -0.5562096134       -1.3800805215
 C          0.7737670271        1.9089725314        0.1243424440
 C         -0.4512713491        1.3719623470        0.8180815214
 C         -1.2069058744        2.1780203645        1.6610010197
 C         -2.3359073909        1.6793265880        2.2881072203
 C         -2.7364998367        0.3714826386        2.0829820110
 C         -1.9901621259       -0.4406456296        1.2383785955
 C         -0.8580177659        0.0604955989        0.6124178658
 H         -0.2836850499       -0.5735588471       -0.0467919291
 N         -2.3960967404       -1.7686548274        1.0093140844
 S         -3.9949360065       -2.0063522601        0.5690234488
 O         -4.8288268398       -1.9388182868        1.7432761133
 O         -4.0149384510       -3.2599448515       -0.1501407876
 C         -4.3709829935       -0.6465954501       -0.5218627397
 C         -3.7572636044       -0.6201523329       -1.7586295450
 C         -3.9887743110        0.4567692424       -2.5989755221
 C         -4.8192883491        1.4874955461       -2.1864698682
 C         -5.4303778344        1.4444620908       -0.9430882781
 C         -5.2053682185        0.3682786948       -0.0995409656
 H         -5.6624596803        0.2940425669        0.8734004780
 H         -6.0773145776        2.2463766664       -0.6260679017
 H         -4.9887357930        2.3287343065       -2.8395461375
 H         -3.5131193823        0.4922471651       -3.5657824282
 H         -3.1164890930       -1.4383327056       -2.0477845422
 H         -1.7750049415       -2.2724403478        0.3925605505
 H         -3.6085629399       -0.0366026559        2.5675421610
 H         -2.9092721781        2.3145959572        2.9456213728
 H         -0.8948468709        3.1973153982        1.8351715840
 H          1.0400656284        2.8581078564        0.6151262947
 C          0.5329429104        2.2183127267       -1.3484896091
 C         -0.6197643978        1.6842487972       -2.1385641143
 C         -0.5889624113        3.1298127198       -1.7505579624
 H         -0.4046758419        3.8713242627       -2.5128381599
 H         -1.2677993708        3.4494570044       -0.9744022334
 H         -0.4335463438        1.4144415927       -3.1667773782
 H         -1.3285773333        1.0407480754       -1.6421655020
 H          1.4682271406        2.3338034049       -1.8877339266
