  62
        -98.94216804
 C         -1.2543903663       -1.2954153019        0.8336327298
 C         -2.2181358359       -0.9052880011       -0.1232639038
 C         -2.8841883705        0.3917402619        0.0990587738
 C         -2.4915723017        1.1692617903        1.1243574752
 C         -2.9686127747        2.5279106310        1.5946652434
 C         -3.9311446554        3.3525089247        0.7459588809
 C         -3.3218297916        3.9183704337       -0.5372054816
 H         -4.1217335820        4.3765065265       -1.1236251711
 H         -2.6148297372        4.7066598940       -0.2657747981
 C         -2.5720950992        2.9208775782       -1.4174394587
 H         -1.7128172913        2.5112965373       -0.8813548293
 H         -2.1684398461        3.4700035291       -2.2735318156
 C         -3.4120566178        1.7687398584       -1.9635304891
 H         -2.7843971673        1.2135863817       -2.6664963647
 H         -4.2675818108        2.1647661388       -2.5157016736
 C         -3.9258740164        0.7702555019       -0.9146289062
 H         -4.8234463987        1.1409972017       -0.4251049527
 H         -4.1925436242       -0.1540032274       -1.4363156810
 H         -4.8256057774        2.7769975527        0.5264215110
 H         -4.2434126225        4.2004255747        1.3618675480
 H         -3.4274282985        2.3569678795        2.5750505638
 H         -2.0622408666        3.1152562424        1.7759509405
 O         -1.5243414382        0.7670479135        2.0007694767
 C         -0.8864701766       -0.4548714765        1.8807452334
 O         -0.0228079456       -0.6709222318        2.7556984665
 O         -2.5278312790       -1.6101188656       -1.1201250926
 C         -0.4701334485       -2.5857909011        0.6539986297
 C          0.3279572932       -2.4495818472       -0.6209315131
 C          0.2770552399       -3.3453201468       -1.6790486799
 C          0.9704976619       -3.0785281607       -2.8481835844
 C          1.7027182131       -1.9148693766       -2.9921642719
 C          1.7750799943       -1.0205284161       -1.9282437769
 C          1.1212040869       -1.3148137848       -0.7451891779
 H          1.1800965983       -0.6239047648        0.0826040279
 N          2.5110933912        0.1672065343       -2.0290938730
 S          2.1023043874        1.5225989335       -1.1366486309
 O          0.6822794552        1.6256836454       -0.8994888621
 O          2.7028705899        2.6171825293       -1.8723962403
 C          2.9966234954        1.3065776644        0.3862890591
 C          2.3432904702        1.4004964463        1.5974219563
 C          3.0689417942        1.2332449498        2.7666291485
 C          4.4305698547        0.9836988769        2.7033498017
 C          5.0758108728        0.9024139992        1.4778662361
 C          4.3545833698        1.0645800238        0.3069483168
 H          4.8177507812        1.0112062692       -0.6640210016
 H          6.1356963852        0.7101846601        1.4334196222
 H          4.9905030777        0.8519649544        3.6158263376
 H          2.5575731577        1.2860751163        3.7143491917
 H          1.2793882537        1.5814067325        1.6134637012
 H          2.8411972761        0.3962529067       -2.9546787196
 H          2.2097904652       -1.6926608087       -3.9187077036
 H          0.9186910812       -3.7771650767       -3.6695685467
 H         -0.3196055030       -4.2389605966       -1.5991736816
 H          0.2320293624       -2.6355443800        1.4987581817
 C         -1.3754112061       -3.7966244055        0.6920600805
 C         -0.8195649864       -5.1337938310        1.0775336378
 C         -1.7255983667       -4.3993052890        2.0181801706
 H         -2.7286158910       -4.7701884316        2.1663685441
 H         -1.2934990774       -3.9466185632        2.8988845519
 H         -1.2018109200       -6.0135720601        0.5824609423
 H          0.2302634584       -5.1859157606        1.3231529327
 H         -2.1529884147       -3.7608740202       -0.0615681354
