  62
        -98.93414132
 C         -2.4065152447       -0.9652991097        0.1019083062
 C         -3.6446975106       -0.9176197148        0.7904009816
 C         -4.7173790833       -0.1141367475        0.1791150962
 C         -4.4654707807        0.5404932720       -0.9672315750
 C         -5.3914275812        1.4490317050       -1.7277699514
 C         -5.1830815693        2.9142257717       -1.3087606379
 C         -6.0072822928        3.3627314235       -0.1025987308
 H         -5.6720080539        4.3675472782        0.1643784038
 H         -7.0577608432        3.4343024325       -0.3923438548
 C         -5.9009249233        2.4647808988        1.1327162600
 H         -4.8604113111        2.1729504231        1.2867404044
 H         -6.2029875024        3.0529757344        2.0014493122
 C         -6.7876983824        1.2135653932        1.0476737034
 H         -7.3938743789        1.1377033830        1.9528337968
 H         -7.4851674272        1.3262873506        0.2178431725
 C         -6.0322075544       -0.1162129529        0.9103400651
 H         -6.6915135967       -0.8539064370        0.4402137893
 H         -5.7934983365       -0.5030555780        1.9061699573
 H         -4.1191245275        3.0550707271       -1.1014769813
 H         -5.4395789820        3.5590790191       -2.1517318107
 H         -6.4253761748        1.1446682373       -1.5949171560
 H         -5.1275542760        1.3485925533       -2.7826828736
 O         -3.2526898103        0.4949130015       -1.5812090428
 C         -2.1937714617       -0.2448537280       -1.0744197962
 O         -1.1585329563       -0.1692189331       -1.7605173803
 O         -3.8454324272       -1.5192604931        1.8797435902
 C         -1.2948762411       -1.7897296791        0.7269938548
 C         -0.0229509149       -0.9855701659        0.8059234786
 C          0.0910470274        0.0095355479        1.7722357497
 C          1.2392669392        0.7724141779        1.8700124863
 C          2.2967498840        0.5628120067        1.0024116897
 C          2.1911805228       -0.4230844808        0.0313136272
 C          1.0410763044       -1.1960645241       -0.0564986409
 H          0.9644392140       -1.9482389763       -0.8266001015
 N          3.2566994922       -0.6244798322       -0.8639932471
 S          4.7800627584       -0.9055213188       -0.2219864159
 O          5.4968341901       -1.6393465331       -1.2424279490
 O          4.6964875098       -1.5316665475        1.0779031317
 C          5.4921830098        0.7190922099       -0.0699288619
 C          5.9679049481        1.1509763201        1.1525466284
 C          6.5290760613        2.4152729630        1.2445204050
 C          6.6045269019        3.2202527842        0.1182372118
 C          6.1237015794        2.7707295694       -1.1027246920
 C          5.5627795651        1.5075515775       -1.2016602521
 H          5.1804168567        1.1201760629       -2.1313755705
 H          6.1834387996        3.3999521017       -1.9761820233
 H          7.0405310113        4.2040443157        0.1919761096
 H          6.9034569302        2.7666847794        2.1926082691
 H          5.8824786342        0.4923430762        2.0020866916
 H          3.0462820832       -1.2794995925       -1.6028658037
 H          3.1936850461        1.1571466693        1.0676100153
 H          1.3122013993        1.5394287686        2.6260808142
 H         -0.7373870480        0.1789264419        2.4466089785
 H         -1.6417327587       -1.9735446412        1.7571626906
 C         -1.0922262651       -3.1585370452        0.0937019367
 C         -2.2654790798       -3.9558958873       -0.3898148536
 C         -1.2688192070       -3.4194858467       -1.3710122649
 H         -0.5955689319       -4.1171620900       -1.8485119876
 H         -1.5567450901       -2.5929842557       -2.0014763856
 H         -2.2817877229       -5.0181372414       -0.1980654235
 H         -3.2375756917       -3.4871548719       -0.3422287219
 H         -0.3034934665       -3.7153466933        0.5921884734
