  62
        -98.93715930
 C          1.8487161554        0.9094307451        0.0341608423
 C          2.3655898611       -0.4076408862        0.0235685215
 C          3.7940507088       -0.5404400452        0.3547871851
 C          4.5047922363        0.5616308325        0.6557259695
 C          5.9815197581        0.5988918044        0.9294833030
 C          6.7633767324        0.5024006912       -0.3962438971
 C          7.5968314961       -0.7704941420       -0.5455675594
 H          7.9216516144       -0.8282186673       -1.5866417142
 H          8.4916958367       -0.6839295140        0.0743003457
 C          6.8923856969       -2.0778571886       -0.1701443317
 H          6.8926397471       -2.1971811899        0.9143317034
 H          7.4984859502       -2.8923015190       -0.5726805945
 C          5.4542450645       -2.2367348233       -0.6803926061
 H          5.2884668852       -1.6201222327       -1.5641898899
 H          5.3158093988       -3.2753234124       -0.9880462261
 C          4.3654799190       -1.9311791522        0.3655031054
 H          3.5082382722       -2.5851386128        0.1787374967
 H          4.7436741993       -2.1639257548        1.3648484962
 H          7.4306832455        1.3605700106       -0.4888200719
 H          6.0495476853        0.5696859981       -1.2199684520
 H          6.1960959042        1.5437038141        1.4291243143
 H          6.2531828646       -0.2175313316        1.5947965722
 O          3.9658147401        1.8086211153        0.6701411199
 C          2.6321199422        2.0158698978        0.3600776695
 O          2.2681505847        3.2077981663        0.4153997865
 H         -1.6551926932       -0.6248403562       -0.9209470566
 C         -1.4911026618       -0.4929341463        0.1347731834
 C         -0.5005597649        0.3564093516        0.6003093708
 C         -0.3193877836        0.4790280281        1.9763753336
 C         -1.0930968275       -0.2476004840        2.8590495214
 C         -2.0755542073       -1.1025967713        2.3897978672
 C         -2.2715368567       -1.2260106256        1.0204281336
 N         -3.2518916111       -2.0970053835        0.5186623624
 S         -4.2658069049       -1.6123164201       -0.7176223485
 O         -5.3563468851       -2.5616818826       -0.6828694916
 O         -3.5420001680       -1.5194617904       -1.9589344088
 C         -4.8430149982       -0.0041209654       -0.2077531851
 C         -4.2513720497        1.1322477680       -0.7197436769
 C         -4.6686577387        2.3700537296       -0.2559643399
 C         -5.6633770289        2.4493445120        0.7060629598
 C         -6.2517339824        1.2976758686        1.2069156606
 C         -5.8361164249        0.0577332492        0.7506534757
 H         -6.2750260464       -0.8604665558        1.1060465916
 H         -7.0289634758        1.3633831311        1.9511378659
 H         -5.9833574358        3.4148856164        1.0648158992
 H         -4.2139154669        3.2667782228       -0.6460061429
 H         -3.4848000265        1.0309700285       -1.4698980761
 H         -3.7659849965       -2.5982577253        1.2282136039
 H         -2.6755268439       -1.6790165410        3.0774344547
 H         -0.9330927915       -0.1480690204        3.9220737934
 H          0.4504781051        1.1453994419        2.3418298225
 C          0.3917096425        1.1559979050       -0.3170202563
 H          0.2121777690        2.2239910791       -0.1252749623
 C          0.1606283980        0.8807680574       -1.7879135251
 C         -0.8838374054        1.6435120873       -2.5437387317
 C          0.5690616339        1.9144417606       -2.7924825648
 H          1.0066223080        1.5848850478       -3.7229231922
 H          0.9901781712        2.8342493621       -2.4127512022
 H         -1.4428823141        2.3914833287       -2.0017297981
 H         -1.4507222998        1.1263492633       -3.3041285446
 H          0.3259229451       -0.1578781905       -2.0517875072
 O          1.6725816649       -1.4231498692       -0.2475095262
