  62
        -98.94280434
 C          2.5722298002        0.0993372108       -0.2830437701
 C          2.6788069708       -0.8539314990        0.7624516300
 C          2.3109654212       -2.2358295192        0.4371696103
 C          1.8914536011       -2.5235181096       -0.8076812496
 C          1.4481617116       -3.8798184398       -1.2739202993
 C         -0.0654187183       -4.0680016603       -1.1082589991
 C         -0.5927863582       -3.7076809403        0.2811150310
 H         -0.5165307186       -2.6268145903        0.4251664008
 H         -1.6583069581       -3.9500349307        0.2909404712
 C          0.1048144922       -4.4343350399        1.4396608310
 H         -0.6572086475       -4.7725597901        2.1449141911
 H          0.6184379025       -5.3212272898        1.0660466910
 C          1.0894501020       -3.5714985894        2.2312280707
 H          1.3263416924       -4.0920416992        3.1632640207
 H          0.6116045217       -2.6237733596        2.4933574606
 C          2.4179053618       -3.2606675290        1.5306708304
 H          2.8608323621       -4.1842624189        1.1517428705
 H          3.0956113217       -2.8324382487        2.2750747303
 H         -0.3070705280       -5.1091410505       -1.3333047789
 H         -0.5754114587       -3.4326502106       -1.8371115691
 H          1.7019038814       -3.9768978998       -2.3312689194
 H          1.9832713820       -4.6418578495       -0.7099581693
 O          1.8066101106       -1.5909617897       -1.7882058397
 C          2.1113641602       -0.2555991296       -1.5515416100
 O          1.9454208097        0.4703017102       -2.5519889800
 O          3.0818151608       -0.5564644087        1.9206637099
 C          2.8863521798        1.5352342509        0.0978675897
 C          1.6554155296        2.1983869006        0.6744908198
 C          1.7418927695        3.0331143807        1.7829289996
 C          0.6034981593        3.6000285604        2.3273187297
 C         -0.6438192306        3.3208090999        1.7982542600
 C         -0.7391225005        2.4928024697        0.6858383801
 C          0.4087911196        1.9636663300        0.1158740900
 H          0.3134430797        1.3333471199       -0.7556122999
 N         -1.9827855205        2.1651283491        0.1204865104
 S         -2.1624261800        0.5692954290       -0.4210655994
 O         -1.4748181395       -0.3331286706        0.4732762306
 O         -1.8009889902        0.5063782289       -1.8148410194
 C         -3.9291382799        0.3738649483       -0.2669896291
 C         -4.7399215402        0.9881394179       -1.2034600490
 C         -6.1150252502        0.8736935874       -1.0772287088
 C         -6.6538371997        0.1504028973       -0.0231011086
 C         -5.8277566994       -0.4628371922        0.9064955613
 C         -4.4509105494       -0.3499869117        0.7877040811
 H         -3.7683709891       -0.8123612114        1.4826464011
 H         -6.2490039890       -1.0275924423        1.7224355415
 H         -7.7244310697        0.0618828469        0.0723760316
 H         -6.7598793805        1.3469545270       -1.7999271088
 H         -4.2740030906        1.5296344679       -2.0103190492
 H         -2.7639605505        2.4535889989        0.6945224904
 H         -1.5362350807        3.7345316196        2.2426119901
 H          0.6846510892        4.2447104506        3.1891775496
 H          2.7064632995        3.2181420312        2.2311353695
 H          3.6313617499        1.4698202213        0.9041889396
 C          3.4620157893        2.3831361210       -1.0179982305
 C          4.3595087689        3.5343128314       -0.6792121508
 C          4.9266770292        2.3057360215       -1.3230708808
 H          5.2368693491        2.3527928715       -2.3557506908
 H          5.5266724596        1.6424128118       -0.7171918008
 H          4.2815213085        4.4345611313       -1.2688460310
 H          4.5861434190        3.7072102916        0.3616110091
 H          2.7868571791        2.4994408006       -1.8559148905
