  62
        -98.94615477
 C         -1.0272686897       -1.5701934481       -0.1577554127
 C         -1.1628153442       -0.1805462312       -0.3997967001
 C         -2.2454172231        0.4919007595        0.3316178327
 C         -2.9772571713       -0.1859518122        1.2319987081
 C         -4.0835869887        0.3757461282        2.0834256154
 C         -5.4472048987        0.4314911474        1.3806557337
 C         -5.5800626691        1.5063286480        0.3010322839
 H         -6.6403147213        1.5780982821        0.0504301237
 H         -5.2765517630        2.4697529501        0.7118208810
 C         -4.7873799927        1.2173598138       -0.9813574873
 H         -4.5129521763        0.1604211010       -1.0087181560
 H         -5.4209360774        1.4068168885       -1.8507007840
 C         -3.5233681666        2.0606877111       -1.1483612426
 H         -3.0223354061        1.7488112974       -2.0678474538
 H         -3.7973060887        3.1128204420       -1.2517839986
 C         -2.5192744981        1.9287275649        0.0044209243
 H         -2.8834246641        2.4558462450        0.8864591622
 H         -1.5740290333        2.3778741540       -0.3081227457
 H         -5.6555772463       -0.5493315035        0.9470336025
 H         -6.2007835806        0.6220692164        2.1483712615
 H         -4.1694287951       -0.2806664224        2.9523247705
 H         -3.8079446001        1.3724389002        2.4300185575
 O         -2.7713932163       -1.5049848278        1.4909678296
 C         -1.8185220769       -2.2244725156        0.7909696991
 O         -1.7707543842       -3.4342622713        1.0976015821
 O         -0.4371187398        0.4893962806       -1.1811152930
 C          0.0010964910       -2.4515507619       -0.8512567338
 C          1.3318846156       -2.3745446003       -0.1424044453
 C          1.9830893134       -3.5213425483        0.2960752497
 C          3.1932060759       -3.4304186137        0.9609629394
 C          3.7630515639       -2.1968205393        1.2206863934
 C          3.1169750046       -1.0450403448        0.7869468403
 C          1.9235227078       -1.1415930291        0.0889253685
 H          1.4329284653       -0.2437542100       -0.2481635768
 N          3.6543520104        0.2285571634        1.0279570585
 S          2.6191585321        1.4930824300        1.4018038946
 O          3.4509100713        2.4339902387        2.1281433781
 O          1.4457155617        1.0320126381        2.1097315199
 C          2.1778956561        2.2380432082       -0.1528137942
 C          2.8927984428        1.9607346782       -1.2991387790
 C          2.5361409070        2.5977103988       -2.4771312883
 C          1.4843548984        3.4993728641       -2.4877975462
 C          0.7817190217        3.7724841098       -1.3253274083
 C          1.1307964644        3.1365968064       -0.1454279701
 H          0.6029291373        3.3071277108        0.7803579103
 H         -0.0411122063        4.4700262468       -1.3355687677
 H          1.2049463512        3.9880688114       -3.4080137601
 H          3.0767677778        2.3818883612       -3.3849291215
 H          3.6981885689        1.2457204437       -1.2633123518
 H          4.4840950638        0.2459190768        1.6030282178
 H          4.6954441674       -2.1235309761        1.7596929367
 H          3.6900477333       -4.3280280204        1.2968314288
 H          1.5263859672       -4.4859686133        0.1299347862
 H         -0.3713584349       -3.4805726704       -0.7518409712
 C          0.1672754053       -2.1398761322       -2.3263381770
 C          0.6998380577       -3.2015267392       -3.2389003043
 C         -0.7401801397       -2.7940402745       -3.3222514921
 H         -1.0685833954       -2.2185389693       -4.1744576041
 H         -1.4867917020       -3.4778227446       -2.9443079041
 H          1.3640256310       -2.9074556995       -4.0367218714
 H          0.9283784067       -4.1647992797       -2.8085394635
 H          0.4594441361       -1.1155402457       -2.5148883610
