  62
        -98.94189694
 C         -0.6224449798       -1.5668383880        0.2450765995
 C         -1.3400498978       -0.6121703781        1.0005862580
 C         -2.3464430119        0.1697418731        0.2671871218
 C         -2.4838216929       -0.0200921550       -1.0578286498
 C         -3.5049821944        0.6550149878       -1.9296355848
 C         -4.8827276470       -0.0122316466       -1.7408464311
 C         -5.9419641492        0.8918443783       -1.1093032430
 H         -6.2973890403        1.5995436687       -1.8611954039
 H         -6.7857144988        0.2580396794       -0.8283604915
 C         -5.4919400075        1.6954858930        0.1145524617
 H         -4.9291004744        2.5719878092       -0.2101678329
 H         -6.3967722401        2.0683670431        0.5990443119
 C         -4.6574980971        0.9309571163        1.1502506241
 H         -4.8549062151       -0.1393115005        1.0885961591
 H         -4.9705493106        1.2558464718        2.1444648667
 C         -3.1395787969        1.1754489968        1.0561209038
 H         -2.9576480213        2.1793662702        0.6613810236
 H         -2.7163807022        1.1296723777        2.0640804536
 H         -5.2561807920       -0.3530868799       -2.7076618100
 H         -4.7479776825       -0.9039304217       -1.1249044736
 H         -3.5538013793        1.7144867850       -1.6869431067
 H         -3.1673220140        0.5518965984       -2.9613633093
 O         -1.7521675193       -0.9257006849       -1.7566507788
 C         -0.8008289250       -1.7156170045       -1.1304624273
 O         -0.2053057874       -2.5044733891       -1.8891021430
 H          1.4207230667       -0.0172872218        0.3347411153
 C          2.1098581736       -0.7954020550        0.0412248728
 C          1.7805419645       -2.1218946244        0.2912309024
 C          2.6855739103       -3.1098746648       -0.0722943330
 C          3.8688978693       -2.7722327824       -0.7069714633
 C          4.1640977215       -1.4553606005       -1.0066976743
 C          3.2712198763       -0.4573630016       -0.6310510851
 N          3.5328938192        0.8927328186       -0.9054142521
 S          2.2708038618        1.9444152794       -1.2259192682
 O          1.1678071679        1.2978940695       -1.8981549835
 O          2.8975529364        3.0363627833       -1.9435799136
 C          1.7794001392        2.5324294053        0.3799160820
 C          0.4439007603        2.5393546979        0.7272663874
 C          0.0772671275        3.0260161997        1.9719006840
 C          1.0488799638        3.4954182819        2.8415971682
 C          2.3867661513        3.4853706950        2.4762978635
 C          2.7591224971        3.0016560226        1.2328611968
 H          3.7864459386        2.9793012858        0.9099548789
 H          3.1385369776        3.8511282587        3.1569657804
 H          0.7586534808        3.8693884398        3.8107205884
 H         -0.9618430933        3.0247984438        2.2582982595
 H         -0.2793234564        2.1477135926        0.0273147874
 H          4.3328025786        1.0638349891       -1.4970103115
 H          5.0717604798       -1.1981784232       -1.5310759731
 H          4.5620331809       -3.5492698034       -0.9918230643
 H          2.4592114969       -4.1446936674        0.1256306750
 C          0.4439225738       -2.4006766355        0.9330761697
 H          0.4743144901       -2.0403186955        1.9722679436
 C          0.0625954994       -3.8658064392        0.9325915869
 C          0.5329325427       -4.7711637544        2.0306752689
 C         -0.9065958377       -4.3614635111        1.9624222893
 H         -1.6411934915       -5.0957480768        1.6676051818
 H         -1.2710137304       -3.6446862273        2.6836920257
 H          0.7854401282       -5.7914904659        1.7844399835
 H          1.1456796550       -4.3385803365        2.8067921213
 H         -0.0202382488       -4.2716344243       -0.0696234570
 O         -1.1461126945       -0.4186812428        2.2316246335
