  62
        -98.93692285
 C         -1.9263542190       -1.5377064003       -0.0132886017
 C         -1.7150055698       -0.1821786999       -0.3547444610
 C         -2.9222209902        0.6420411095       -0.5596875106
 C         -4.1394020499        0.0927878887       -0.3964917610
 C         -5.5275085003        0.6723027779       -0.5721699208
 C         -5.7382436611        2.1814747879       -0.6657091100
 C         -5.4239215817        2.9543093973        0.6151821905
 H         -5.5106189823        4.0214050974        0.3990839011
 H         -6.1795287916        2.7049699665        1.3645655903
 C         -4.0552963016        2.6819097578        1.2349120004
 H         -3.9714047320        3.2918462774        2.1385180208
 H         -3.9963546210        1.6371872677        1.5473952599
 C         -2.8556271317        3.0026122390        0.3454254907
 H         -1.9569563017        2.9048612992        0.9606125707
 H         -2.9186418323        4.0372919992        0.0029313513
 C         -2.6791225411        2.0887947598       -0.8794097798
 H         -1.6379933311        2.1585592306       -1.2077783597
 H         -3.3045930212        2.4105191999       -1.7084682296
 H         -6.7978218712        2.3327633774       -0.8896504300
 H         -5.1799889113        2.5885480987       -1.5036643197
 H         -5.9300404399        0.2101707682       -1.4805808411
 H         -6.1201470801        0.2791732371        0.2600943690
 O         -4.2932780992       -1.2202908116       -0.0519981917
 C         -3.2108776187       -2.0540447611        0.1633475179
 O         -3.5177360681       -3.2114430915        0.5118432172
 O         -0.5770567101        0.3349121708       -0.4901142606
 C         -0.7674557285       -2.4847341297        0.2421027578
 C          0.2833120511       -1.8061396396        1.0879497583
 C         -0.0869172493       -1.3105496405        2.3365271085
 C          0.8357457102       -0.6859704904        3.1516782190
 C          2.1507386502       -0.5460861794        2.7422671291
 C          2.5339305206       -1.0440242685        1.5032981389
 C          1.6028443110       -1.6738381886        0.6861945385
 H          1.9243583313       -2.0280190678       -0.2783207117
 N          3.8739087506       -0.9565397874        1.0871513791
 S          4.3134742903       -0.3826118964       -0.4206385106
 O          3.6828866709       -1.1641156862       -1.4521412011
 O          5.7605110504       -0.4022540655       -0.4021204705
 C          3.7548337194        1.3115108233       -0.4664369397
 C          4.6960076788        2.3164089038       -0.3451541591
 C          4.2755450780        3.6360698836       -0.3388234684
 C          2.9237926178        3.9282546028       -0.4433511783
 C          1.9933861784        2.9075423224       -0.5575805990
 C          2.4055085992        1.5835244226       -0.5713231597
 H          1.6860199997        0.7849704122       -0.6560522402
 H          0.9391355683        3.1220696718       -0.6332543489
 H          2.5930888172        4.9550610626       -0.4357099178
 H          4.9996998075        4.4300093340       -0.2505259179
 H          5.7355182989        2.0415245044       -0.2665573291
 H          4.4933783603       -0.5684178175        1.7843936193
 H          2.8741353099       -0.0582519493        3.3780170395
 H          0.5304521599       -0.3012820211        4.1132481392
 H         -1.1158775093       -1.4166585812        2.6543657384
 H         -1.1971375980       -3.3062214703        0.8402575374
 C         -0.1980123380       -3.1182504387       -1.0185274525
 C         -1.0444429178       -3.3348512985       -2.2364143426
 C          0.0622466616       -2.3258610278       -2.2626713220
 H          0.9553332318       -2.5424258570       -2.8311224621
 H         -0.1962419790       -1.2790660680       -2.2502981814
 H         -0.9197766972       -4.2543278581       -2.7884858231
 H         -2.0636986280       -2.9768206991       -2.2101789225
 H          0.5139784624       -3.9058820084       -0.7892969528
