  62
        -98.94369556
 C         -1.7479610511       -0.4446029847       -0.3139425197
 C         -2.9544587025       -0.8905739421       -0.9033910789
 C         -4.1716522930       -0.6874897871       -0.1066478320
 C         -4.0725670751       -0.1286062421        1.1136244501
 C         -5.2355489687        0.1806123055        2.0104908193
 C         -5.7609711797        1.6026993294        1.7692532005
 C         -5.9997571527        1.9310446758        0.2954991145
 H         -6.3972755099        2.9472125584        0.2488683415
 H         -5.0412688596        1.9363635129       -0.2284125752
 C         -6.9619130282        0.9727989556       -0.4203476142
 H         -7.5493003877        0.4199877315        0.3137162538
 H         -7.6613940875        1.5606161652       -1.0185279861
 C         -6.2827424895       -0.0138066556       -1.3720587064
 H         -5.6206250088        0.5290766187       -2.0513176339
 H         -7.0576924343       -0.4878227254       -1.9804383596
 C         -5.4751540527       -1.1350727495       -0.7060734816
 H         -6.0916354989       -1.6382528108        0.0417101151
 H         -5.2142614904       -1.8617755005       -1.4812367713
 H         -6.6912251914        1.7260301900        2.3267891221
 H         -5.0309363473        2.3128094881        2.1642024868
 H         -6.0271015672       -0.5451079099        1.8340901314
 H         -4.9022580245        0.0966833384        3.0462173516
 O         -2.8924616737        0.2650320447        1.6562211709
 C         -1.7014169892        0.1258421369        0.9583294957
 O         -0.6972726880        0.5374158492        1.5678370522
 H          2.1910018533       -0.1504931309       -0.4264288676
 C          1.8180947377       -1.0849151047       -0.0442179918
 C          0.5103771040       -1.4673068939       -0.2939042260
 C          0.0666265961       -2.6909818167        0.2024948758
 C          0.9068856266       -3.4987683294        0.9424396637
 C          2.2105210863       -3.1090577020        1.1967936853
 C          2.6666139488       -1.8947889072        0.6996140655
 N          3.9692983432       -1.4597851610        0.9698033035
 S          4.8171427290       -0.5027557664       -0.1002562862
 O          4.5851186394       -0.8944260329       -1.4711245408
 O          6.1890818192       -0.5873061290        0.3540564609
 C          4.2139444502        1.1490060311        0.1776680627
 C          3.9082564251        1.5487656994        1.4630310543
 C          3.4628039002        2.8440750901        1.6717128861
 C          3.3371979571        3.7145996696        0.5999830667
 C          3.6555812571        3.3002480358       -0.6839877812
 C          4.0999875949        2.0054997323       -0.8995368212
 H          4.3500241649        1.6369397630       -1.8820372737
 H          3.5565133730        3.9792120994       -1.5161330012
 H          2.9864914910        4.7210787591        0.7659979330
 H          3.2091595149        3.1682535806        2.6681854505
 H          4.0081552221        0.8461932314        2.2733735741
 H          4.5584021144       -2.1138736571        1.4623962141
 H          2.8669139077       -3.7370552843        1.7796582861
 H          0.5469923316       -4.4425001172        1.3241668933
 H         -0.9518295547       -2.9964591272        0.0040310406
 C         -0.4490156173       -0.6104312382       -1.0815592456
 H         -0.7179083803       -1.1550155769       -1.9992258246
 C          0.1131879585        0.7422293704       -1.4647923243
 C          0.9862652843        0.8821595226       -2.6745558323
 C         -0.4107397702        1.4235725336       -2.6920290274
 H         -0.5495958082        2.4938604320       -2.6683297505
 H         -1.1571364081        0.8986028754       -3.2703319816
 H          1.8071058820        1.5818621232       -2.6366160326
 H          1.1980225404       -0.0096257857       -3.2451170605
 H          0.3316021341        1.3624756365       -0.6022608393
 O         -3.0096099884       -1.4377278169       -2.0382081968
