  62
        -98.93323387
 C          2.2756651096        0.8843445408        0.6634096203
 C          2.4885715400        0.2084478410       -0.5597361398
 C          2.9410465605       -1.1971848488       -0.4767199899
 C          3.0665982006       -1.7714185690        0.7332392900
 C          3.4751995511       -3.1822307288        1.0680360698
 C          2.3589691614       -4.2034081692        0.8045423496
 C          1.6557445915       -4.0488732793       -0.5409128904
 H          0.8429045218       -4.7792706496       -0.5740142906
 H          1.1975032611       -3.0590217495       -0.5927119803
 C          2.5393047417       -4.2737833488       -1.7661412004
 H          1.8853013217       -4.2571790190       -2.6414740304
 H          2.9884262520       -5.2674767987       -1.7054355304
 C          3.6518324213       -3.2461258184       -1.9901356201
 H          3.9981275814       -3.3617706082       -3.0211703701
 H          4.5096700913       -3.4443086482       -1.3529908101
 C          3.2128876108       -1.7935841686       -1.8370563800
 H          3.9751407806       -1.1484781382       -2.2904266199
 H          2.3060105108       -1.6247776588       -2.4290748001
 H          2.7845436418       -5.2054911791        0.8842098695
 H          1.6048973713       -4.0913838796        1.5879856196
 H          4.3777687912       -3.4500538585        0.5267452199
 H          3.7104152610       -3.1926064689        2.1348243599
 O          2.7845998802       -1.0979590092        1.8874733201
 C          2.3808724098        0.2212860107        1.8866046102
 O          2.1500326295        0.6896954504        3.0214184302
 O          2.3206413598        0.7387793411       -1.6890117598
 C          1.8073559691        2.3278367206        0.7084935404
 C          0.6648284991        2.5289946003       -0.2578844197
 C          0.6196616888        3.5388926004       -1.2091886295
 C         -0.4823738512        3.6685098101       -2.0371666396
 C         -1.5573694109        2.8070713997       -1.9303318398
 C         -1.5166798706        1.7840392796       -0.9876201299
 C         -0.4152571106        1.6595726999       -0.1590371899
 H         -0.3921825304        0.8656956198        0.5756017200
 N         -2.5739244403        0.8644605992       -0.8877675501
 S         -2.8523384601        0.0694841989        0.5696707098
 O         -2.8508331605        1.0138144988        1.6655116499
 O         -1.9392677497       -1.0419353508        0.6770527797
 C         -4.5084538198       -0.5290800516        0.2880475195
 C         -5.5789397102        0.2179496979        0.7429114296
 C         -6.8657928800       -0.2326022625        0.4939822494
 C         -7.0596988395       -1.4150322025       -0.2042467308
 C         -5.9757640792       -2.1547837921       -0.6533036708
 C         -4.6863001394       -1.7102124016       -0.4070821106
 H         -3.8133538391       -2.2546361713       -0.7279763906
 H         -6.1300899188       -3.0752113721       -1.1928812509
 H         -8.0618458493       -1.7639268529       -0.3969045309
 H         -7.7098828602        0.3387253071        0.8450442694
 H         -5.3785831305        1.1250608479        1.2901432597
 H         -3.4280678803        1.1873689489       -1.3202927302
 H         -2.4150580209        2.9106739995       -2.5772085799
 H         -0.5042383014        4.4558596602       -2.7753944095
 H          1.4528843086        4.2135178507       -1.3163088094
 H          1.3971735490        2.4560063803        1.7255916704
 C          2.9209555887        3.3542293410        0.5588417406
 C          4.3418754988        3.0090491815        0.8891672707
 C          3.9452802288        3.2701819315       -0.5312102893
 H          4.2775880285        4.1885409817       -0.9928547692
 H          3.8775998892        2.4359180716       -1.2106175394
 H          4.9404222285        3.7459777016        1.4035401508
 H          4.5533593492        1.9912938615        1.1847372206
 H          2.5939208883        4.3490615209        0.8458813807
