  62
        -98.93663432
 C         -1.8953720989       -0.5945524897       -0.8189949206
 C         -2.3027553492       -0.0874804592        0.4374297291
 C         -3.7494778693       -0.1295292990        0.7161735288
 C         -4.5859252591       -0.6406417892       -0.2034213112
 C         -6.0803631191       -0.8267710490       -0.1145852815
 C         -6.9037703292        0.3174661813        0.4919546378
 C         -6.3544219689        1.7258320911        0.2224883575
 H         -5.5704694688        1.6830179707       -0.5355190923
 H         -7.1575745188        2.3496299710       -0.1743184930
 C         -5.8104875592        2.4050319315        1.4816434773
 H         -6.5019894694        2.2184016219        2.3062420972
 H         -5.7851783290        3.4846057614        1.3148552170
 C         -4.4042213793        1.9789098715        1.9015406379
 H         -3.6717597891        2.3623889812        1.1862609279
 H         -4.1855451195        2.4451967819        2.8651401077
 C         -4.1809109895        0.4629041615        2.0268616185
 H         -3.3483248797        0.3014896217        2.7170413787
 H         -5.0625509397       -0.0343759482        2.4239117084
 H         -6.9937650294        0.1714914517        1.5674673579
 H         -7.9105305491        0.2338081612        0.0789520976
 H         -6.4047807589       -1.0059684294       -1.1425504115
 H         -6.2751855894       -1.7446990288        0.4479219788
 O         -4.1460391088       -1.1215261597       -1.4019482809
 C         -2.8042970987       -1.1095324900       -1.7404716106
 O         -2.5519825785       -1.5821176504       -2.8682262004
 H          2.1056953310       -0.0927778999       -0.2455741997
 C          1.6711048608       -0.9882610197        0.1666988605
 C          0.3920771408       -1.3784250997       -0.2009980797
 C         -0.1258365694       -2.5522406495        0.3396953006
 C          0.6054548003       -3.2982360992        1.2430180511
 C          1.8812197002       -2.9052732992        1.6069292112
 C          2.4171414105       -1.7476583995        1.0581268709
 N          3.7074396305       -1.3206107695        1.4055551311
 S          4.7290943908       -0.7207683900        0.2237237512
 O          4.4803376111       -1.3352031305       -1.0593592487
 O          6.0597064707       -0.9016580400        0.7655017016
 C          4.3793454810        1.0231533700        0.1513857304
 C          4.0990683008        1.7036539604        1.3197614101
 C          3.8777946109        3.0703097404        1.2604635595
 C          3.9492518313        3.7320399600        0.0438434893
 C          4.2380263015        3.0353429495       -1.1192736704
 C          4.4553089014        1.6670429095       -1.0676381998
 H          4.6697285015        1.0848274992       -1.9496457095
 H          4.2933218118        3.5505148392       -2.0652790405
 H          3.7778813214        4.7961587900        0.0013211789
 H          3.6498727908        3.6149520508        2.1625842193
 H          4.0485371005        1.1591994508        2.2477825903
 H          4.1971838002       -1.9289851893        2.0455204115
 H          2.4566920000       -3.4897013190        2.3088419216
 H          0.1827387001       -4.1994386090        1.6614395413
 H         -1.1174507794       -2.8702564395        0.0469029105
 C         -0.4264819588       -0.5903575800       -1.1956746902
 H         -0.3587261886       -1.1051662404       -2.1663402700
 C          0.0551731914        0.8365729199       -1.3673292606
 C          1.1159019417        1.1693331094       -2.3716484205
 C         -0.3055548382        1.5718718694       -2.6219178310
 H         -0.5661954882        2.6171100495       -2.5517849714
 H         -0.8698079681        1.0295730792       -3.3671377809
 H          1.8296104617        1.9413219894       -2.1261416106
 H          1.5271438817        0.3583605791       -2.9544021301
 H          0.0389177912        1.3926055402       -0.4368427408
 O         -1.5002040493        0.3671444310        1.2925325192
