  62
        -98.93660615
 C         -1.9365867600       -1.2861940291       -0.1072709490
 C         -3.0264822500       -1.1498270583        0.7891816209
 C         -4.2346554597       -0.4737320679        0.2869299007
 C         -4.2522335095       -0.0150991284       -0.9780955995
 C         -5.3394069692        0.6715181318       -1.7782137898
 C         -6.5814744189        1.2286448726       -1.0881253700
 C         -6.3226067084        2.4303910828       -0.1796779005
 H         -6.0568123780        3.2868048125       -0.8046829508
 H         -7.2523724483        2.6738527834        0.3390112094
 C         -5.2107952285        2.2519732327        0.8513563096
 H         -4.2572984685        2.0988837321        0.3413065097
 H         -5.1254505980        3.1846814129        1.4157141392
 C         -5.4240652690        1.1204626332        1.8548825000
 H         -4.6428567089        1.2043483932        2.6153499900
 H         -6.3884033889        1.2462447838        2.3509887500
 C         -5.3530917596       -0.3020167070        1.2738901006
 H         -6.3028797197       -0.5972757668        0.8343692007
 H         -5.1433354599       -0.9919347168        2.0965061709
 H         -7.2581912588        1.5561271426       -1.8821115801
 H         -7.0941277593        0.4413472230       -0.5433915897
 H         -5.6592283395       -0.0584441184       -2.5301603295
 H         -4.8421326588        1.4783872413       -2.3262180501
 O         -3.1807338995       -0.1701798392       -1.8074924195
 C         -2.0033894498       -0.7868558796       -1.4067765592
 O         -1.1305533398       -0.8089345303       -2.2952649892
 O         -2.9967016902       -1.5930405478        1.9684026811
 C         -0.7037078804       -1.9975057795        0.4224696812
 C          0.3152223801       -1.0171649097        0.9445485908
 C          0.8687748200       -1.1642957195        2.2107382609
 C          1.8079616804       -0.2611538697        2.6791260905
 C          2.2175641709        0.8011610598        1.8939678901
 C          1.6745462110        0.9530320295        0.6240072601
 C          0.7325366106        0.0477250198        0.1573337604
 H          0.3168867306        0.1689876396       -0.8322003696
 N          2.0940358414        2.0194985590       -0.1907279603
 S          3.7433356716        2.2789547483       -0.3243662204
 O          4.2042290819        3.0274425985        0.8187618393
 O          3.9293375318        2.9120745477       -1.6105509907
 C          4.4692425308        0.6495760879       -0.3104088298
 C          4.1599063604       -0.2075878623       -1.3480419695
 C          4.6743319099       -1.4939159926       -1.3306149290
 C          5.4817555997       -1.8998859125       -0.2790381588
 C          5.7874254501       -1.0257547123        0.7523119408
 C          5.2762812407        0.2621839180        0.7398786403
 H          5.4879048110        0.9737726782        1.5210643900
 H          6.4174008399       -1.3435725222        1.5673252109
 H          5.8733581492       -2.9045708127       -0.2659252584
 H          4.4357354295       -2.1752895528       -2.1313417187
 H          3.5293611506        0.1390731376       -2.1519955696
 H          1.6497724714        2.0301657489       -1.0973613003
 H          2.9397041312        1.5202567496        2.2450037098
 H          2.2241994704       -0.3837706895        3.6671055806
 H          0.5466086997       -1.9845013291        2.8350815112
 H         -1.0703509106       -2.5794437190        1.2825631415
 C         -0.1151853008       -2.9875040901       -0.5745657584
 C          1.1902583593       -2.7867438410       -1.2778057885
 C          1.0767346588       -3.8169344005       -0.1971778981
 H          1.0866517583       -4.8613025206       -0.4692245277
 H          1.5517257789       -3.5984770803        0.7472342818
 H          1.2552516591       -3.1098885414       -2.3055206284
 H          1.7527898697       -1.8909605911       -1.0674875088
 H         -0.8923261210       -3.4853208400       -1.1463935582
