  62
        -98.93948826
 C         -1.4119708572       -1.2551737791       -0.0021621573
 C         -2.4792918931       -0.8371942091        0.8235014025
 C         -3.1194492026        0.4320312999        0.4568854909
 C         -2.6446265072        1.1389622656       -0.5849217723
 C         -3.1332815671        2.4834418450       -1.0562099536
 C         -4.5723723283        2.5379004671       -1.6046372434
 C         -5.6302336927        2.9337197006       -0.5671338301
 H         -5.1454539140        3.5031888782        0.2269588127
 H         -6.3508761931        3.6046851132       -1.0389125190
 C         -6.4285722470        1.7787831054        0.0449068710
 H         -7.1867569232        1.4513790854       -0.6699304010
 H         -6.9495520302        2.1621097047        0.9248390064
 C         -5.6173570127        0.5471754200        0.4473043855
 H         -5.3412581795       -0.0189945602       -0.4452818206
 H         -6.2603614013       -0.1055512399        1.0409762185
 C         -4.3304016940        0.8539939684        1.2378090501
 H         -4.2736449746        1.9123488592        1.4895774189
 H         -4.3173017124        0.2795243071        2.1666111987
 H         -4.5779986091        3.2860338773       -2.3988137727
 H         -4.8236019682        1.5805482407       -2.0602417290
 H         -3.0269962981        3.1970142578       -0.2354225464
 H         -2.4375409119        2.7829685299       -1.8428612574
 O         -1.5937917677        0.7158372026       -1.3368352877
 C         -0.9437765541       -0.4733638819       -1.0590703834
 O          0.0129663055       -0.7267286048       -1.8159723883
 H          0.3021391777       -0.5832402337        1.8008834697
 C          1.0965165921       -1.1541733059        1.3350388895
 C          0.7753896398       -2.2487501473        0.5408411924
 C          1.8119683555       -2.9666506379       -0.0410708604
 C          3.1278229439       -2.5715631374        0.1326761770
 C          3.4353930891       -1.4422535604        0.8694859779
 C          2.4065202493       -0.7349287436        1.4757736836
 N          2.7166084399        0.4832124004        2.1530436669
 S          2.4030756994        1.7940666204        1.1283049881
 O          2.8144620199        2.9726011250        1.8631793620
 O          1.0241765374        1.7996877110        0.6847339613
 C          3.5165038214        1.4851537161       -0.2199684229
 C          3.0752646762        0.7797779846       -1.3220170046
 C          3.9809145611        0.4981300082       -2.3338016667
 C          5.2971341860        0.9197455505       -2.2258304624
 C          5.7215083365        1.6284417646       -1.1114398569
 C          4.8245342955        1.9124519005       -0.0948721720
 H          5.1035162230        2.4599205401        0.7903972317
 H          6.7455972153        1.9554960873       -1.0308303302
 H          5.9956788501        0.6933843698       -3.0159575532
 H          3.6462285547       -0.0560569679       -3.1959698370
 H          2.0461084023        0.4568340032       -1.3784441364
 H          2.1615884857        0.6117440205        2.9899743578
 H          4.4509484996       -1.0983500450        0.9780437170
 H          3.9203847594       -3.1356515819       -0.3337030796
 H          1.5867182352       -3.8275553203       -0.6490180503
 C         -0.6854566063       -2.5499196646        0.3200296523
 H         -1.1215098358       -2.9061951316        1.2653042080
 C         -0.9352952780       -3.5837065805       -0.7576732311
 C         -0.9067201382       -5.0451197510       -0.4254884424
 C         -2.2103193201       -4.3700191210       -0.7251069606
 H         -2.7047557862       -4.5888416425       -1.6595939821
 H         -2.8897118060       -4.1768816561        0.0923238580
 H         -0.7040749955       -5.3210592310        0.5981813517
 H         -0.5084510767       -5.7323488042       -1.1563887957
 H         -0.5665054893       -3.2680265260       -1.7272611118
 O         -2.8691960112       -1.4879137423        1.8329249594
