  62
        -98.93927586
 C         -1.6039547354       -1.4824641355       -0.4164491946
 C         -1.2342460369       -0.1315258733       -0.6453944326
 C         -2.3401694705        0.8388974957       -0.7102725095
 C         -3.6032047517        0.4271991232       -0.5092056171
 C         -4.8016107065        1.3276148407       -0.4455265612
 C         -5.0507863858        1.8085570633        0.9914779093
 C         -3.8057894390        2.3560280231        1.6913374305
 H         -4.1122633453        2.6857465043        2.6866374751
 H         -3.0847192446        1.5469526357        1.8321761063
 C         -3.1212794890        3.5181904354        0.9583279987
 H         -3.8109369407        3.9564078610        0.2354291339
 H         -2.8757646475        4.2950647017        1.6856432054
 C         -1.8180786430        3.1440260822        0.2492367281
 H         -1.3242144494        4.0701990718       -0.0592980434
 H         -1.1452597761        2.6358419386        0.9467833423
 C         -1.9755019829        2.2676116732       -0.9991145352
 H         -1.0049979200        2.2331295425       -1.5023792598
 H         -2.7025109442        2.7206747732       -1.6764690102
 H         -5.8236089724        2.5790473456        0.9686961809
 H         -5.4273318244        0.9668203788        1.5774124655
 H         -5.6738722462        0.7687092107       -0.7883573783
 H         -4.6460400384        2.1806541565       -1.1030381695
 O         -3.9219611601       -0.8711936869       -0.2758551722
 C         -2.9406482527       -1.8458537366       -0.2137169562
 O         -3.3816862647       -2.9884138805        0.0257698130
 O         -0.0553161888        0.2710756627       -0.8033207550
 C         -0.5959278558       -2.6125927560       -0.2565981492
 C          0.3129536896       -2.3010201192        0.9068613660
 C         -0.0318103111       -2.7335355688        2.1836655126
 C          0.7657200827       -2.4305701958        3.2717064399
 C          1.9035116078       -1.6600798397        3.1087393284
 C          2.2452399547       -1.2082374092        1.8409010832
 C          1.4703949072       -1.5542017107        0.7431094893
 H          1.7462056299       -1.2064572185       -0.2372487645
 N          3.3737021282       -0.3837495783        1.6358354162
 S          3.0252847736        1.1918184647        1.1391462657
 O          4.2093854210        1.9506471730        1.5024178318
 O          1.7939559886        1.6648740475        1.7303336758
 C          2.9335250219        1.1406634567       -0.6342457243
 C          2.1363986756        2.0627827777       -1.2779275209
 C          2.1026658909        2.0650226663       -2.6630794196
 C          2.8642148587        1.1515176427       -3.3738983474
 C          3.6679557757        0.2379004534       -2.7097355615
 C          3.7092103664        0.2322220214       -1.3248712554
 H          4.3164060044       -0.4679695505       -0.7747735371
 H          4.2589579441       -0.4717931548       -3.2666006040
 H          2.8278293758        1.1497131138       -4.4522025805
 H          1.4759673863        2.7732524949       -3.1822502805
 H          1.5463587691        2.7425010797       -0.6848165511
 H          3.9828542580       -0.3319084060        2.4421036704
 H          2.5176940103       -1.3993607598        3.9584362638
 H          0.4923202031       -2.7829052900        4.2550978524
 H         -0.9384999054       -3.3082441129        2.3152531075
 H         -1.2089489823       -3.4828472411        0.0259878575
 C          0.1710616793       -3.0302418647       -1.5025391860
 C         -0.5122117710       -3.0851562363       -2.8364631247
 C          0.6017772639       -2.1111520817       -2.6036920177
 H          1.5555380642       -2.3079903477       -3.0713496462
 H          0.3683055862       -1.0631214712       -2.5218062658
 H         -0.3357552680       -3.9370252461       -3.4758101300
 H         -1.5210040652       -2.7004418828       -2.8872251982
 H          0.8481303342       -3.8495930485       -1.2771364419
