  62
        -98.94620437
 C          1.8042199956        1.0707217921       -0.2666077206
 C          3.1604937592        1.2960915869        0.0698926722
 C          4.1112679948        0.2681983662       -0.3740794643
 C          3.6572710774       -0.7921228321       -1.0674918426
 C          4.5074007007       -1.9366274332       -1.5363054552
 C          4.5510420049       -3.0616318651       -0.4926209539
 C          4.8719254913       -2.5793883434        0.9220148919
 H          4.0524959142       -1.9513640172        1.2789102225
 H          4.9056940846       -3.4604466601        1.5664415291
 C          6.1922425659       -1.8059744647        1.0443477962
 H          6.8207251583       -2.0054349463        0.1756553028
 H          6.7303463379       -2.1677149278        1.9230850209
 C          6.0287410620       -0.2943807319        1.2140290427
 H          5.3268079329       -0.0904980108        2.0265991120
 H          6.9964421330        0.1217065766        1.5066818799
 C          5.5604178758        0.4703633092       -0.0305969438
 H          5.6731383933        1.5390216749        0.1745565194
 H          6.1971950159        0.2156817325       -0.8802695674
 H          5.2962114390       -3.7945968566       -0.8069945542
 H          3.5763127424       -3.5542564082       -0.4734520303
 H          4.0787961565       -2.3268398309       -2.4609311199
 H          5.5137895919       -1.5753247519       -1.7387806940
 O          2.3487700017       -0.9670543922       -1.3834824162
 C          1.3885680675       -0.0478296058       -0.9873396351
 O          0.2281737349       -0.3375624344       -1.3332045702
 H         -1.9961249141        2.0444708602       -0.1613443094
 C         -1.6492381806        1.5062094277        0.7041116034
 C         -0.2980582127        1.4281067724        1.0007225628
 C          0.0956689053        0.7162850158        2.1322837402
 C         -0.8362635661        0.0907162003        2.9362864694
 C         -2.1838324913        0.1537125094        2.6243350879
 C         -2.5883023454        0.8648048795        1.5023715071
 N         -3.9529594164        0.9689955801        1.1700149998
 S         -4.4776604218        0.4416847117       -0.3311303311
 O         -3.8215863842        1.1880566171       -1.3717554712
 O         -5.9191598696        0.5561835675       -0.2740779331
 C         -4.0244935649       -1.2830341783       -0.3821799887
 C         -4.9884392662       -2.2229519235       -0.0691747934
 C         -4.6378223695       -3.5623862846       -0.0389445956
 C         -3.3305026005       -3.9377577878       -0.3108536741
 C         -2.3757312463       -2.9813164068       -0.6181566497
 C         -2.7188678266       -1.6379385233       -0.6555430147
 H         -1.9832999309       -0.8866465571       -0.8970001482
 H         -1.3559344359       -3.2607855105       -0.8311783288
 H         -3.0536958834       -4.9800794936       -0.2851406123
 H         -5.3805814969       -4.3072242848        0.1976008274
 H         -5.9921609303       -1.8845330488        0.1318883331
 H         -4.5706646568        0.6014008416        1.8808078313
 H         -2.9153183272       -0.3391956440        3.2467473964
 H         -0.5134930111       -0.4560945391        3.8093197228
 H          1.1493315749        0.6622689823        2.3708713924
 C          0.7624534958        2.0902398662        0.1573952288
 H          1.3011442758        2.8130772229        0.7882881570
 C          0.2135976967        2.8193202351       -1.0505635892
 C         -0.3250166860        4.2103327838       -0.9075000400
 C          0.9790935740        3.9797491679       -1.6087193431
 H          1.0194550289        4.1035650681       -2.6805856242
 H          1.8903663167        4.2618491163       -1.1016365827
 H         -0.3006230698        4.6569063475        0.0750915557
 H         -1.1850888610        4.4904611950       -1.4972001133
 H         -0.2733667182        2.1569794372       -1.7585755976
 O          3.5548303300        2.3050846296        0.7141385184
