  62
        -98.93408342
 C          1.9804126145        0.0753660051       -0.6299212498
 C          2.7917305710       -0.6252817745        0.2927857807
 C          4.1423916986       -0.0733452015        0.5435413728
 C          4.5123038932        1.0615592623       -0.0761485745
 C          5.8323496328        1.7815244321        0.0005922349
 C          6.9340627996        1.0877622967       -0.8169749201
 C          6.9857959592       -0.4305538752       -0.6679712988
 H          7.7282899507       -0.8083031445       -1.3759541907
 H          6.0207129347       -0.8514558883       -0.9557467525
 C          7.3663843814       -0.9356611280        0.7216511024
 H          8.3503859003       -0.5432615951        0.9880775897
 H          7.4491598490       -2.0238200781        0.6597109285
 C          6.3871937255       -0.5976305118        1.8477125973
 H          6.4971239979        0.4355149784        2.1661296557
 H          6.6560896432       -1.2168904013        2.7086005289
 C          4.9254466156       -0.9010174110        1.5346081545
 H          4.3539848016       -0.8577264627        2.4696704589
 H          4.8404779145       -1.9394709903        1.1948137153
 H          7.8964460417        1.5171923111       -0.5334120189
 H          6.7625206839        1.3124732369       -1.8726170735
 H          6.1342903037        1.8994776589        1.0370535011
 H          5.6687811208        2.7792290224       -0.4129919536
 O          3.6854490093        1.7177857604       -0.9409813601
 C          2.4226193191        1.2520879601       -1.2386351442
 O          1.7918668366        1.9566649175       -2.0541156060
 O          2.4348205389       -1.6709340486        0.8930351085
 C          0.5791842736       -0.3673987542       -1.0170399932
 C         -0.4415775980        0.1967526285       -0.0632192919
 C         -0.3155248559        0.0254962697        1.3118307347
 C         -1.2662758115        0.5410235540        2.1736821462
 C         -2.3639133168        1.2276169152        1.6842944237
 C         -2.5022903802        1.3976186631        0.3136770830
 C         -1.5434280848        0.8844093407       -0.5500970735
 H         -1.6480792296        1.0353463450       -1.6161581117
 N         -3.6420111705        2.0612745746       -0.1855527869
 S         -5.1124667668        1.3552799758        0.2142566645
 O         -6.0501496566        1.8250574727       -0.7798813879
 O         -5.4300868020        1.6616969302        1.5853485984
 C         -4.8090916443       -0.3917228821        0.0253674750
 C         -4.8000261251       -0.9175590474       -1.2515597138
 C         -4.4652798091       -2.2505139287       -1.4255633515
 C         -4.1327126984       -3.0273973042       -0.3262244165
 C         -4.1498242590       -2.4853726169        0.9491464767
 C         -4.4906771364       -1.1544851707        1.1307409757
 H         -4.5187501228       -0.6974357237        2.1059653684
 H         -3.8917588552       -3.0925763898        1.8017770409
 H         -3.8556774727       -4.0600028895       -0.4655432460
 H         -4.4553814497       -2.6771610763       -2.4157603635
 H         -5.0654923391       -0.2810597245       -2.0807841777
 H         -3.6006853197        2.2316565269       -1.1804981318
 H         -3.1188811134        1.6296353476        2.3406328496
 H         -1.1533822376        0.4049602149        3.2386106353
 H          0.5317736128       -0.5229504357        1.6938025650
 H          0.4004318181        0.0933670275       -2.0014732072
 C          0.4502456643       -1.8756750603       -1.1921849225
 C         -0.4138052157       -2.7407415376       -0.3289650187
 C         -0.8233334383       -2.4499449405       -1.7390357710
 H         -0.7620713036       -3.2376990080       -2.4741431266
 H         -1.6496823515       -1.7700237924       -1.8845560340
 H         -0.0439694548       -3.7246304153       -0.0852615816
 H         -0.9729911662       -2.2755579601        0.4672913889
 H          1.3741614625       -2.3216238300       -1.5445155943
