  62
        -98.93862165
 C          1.8994162900        1.3275820924        0.3738812658
 C          2.6193299501        0.7881918113       -0.7160459003
 C          3.8152301385       -0.0167418549       -0.3895811829
 C          4.1365994545       -0.2078852439        0.9033821856
 C          5.2740708671       -1.0137632151        1.4723606916
 C          5.0161430048       -2.5281507300        1.4126407818
 C          4.4290773082       -3.0291466391        0.0954705370
 H          4.1899540717       -4.0887643928        0.2199939276
 H          3.4899248504       -2.5082154253       -0.1015613482
 C          5.3468029279       -2.8971701244       -1.1176478432
 H          4.8373918312       -3.3695130154       -1.9615757590
 H          6.2676628058       -3.4546004577       -0.9319652945
 C          5.7163510332       -1.4693494367       -1.5250669060
 H          6.1581836890       -1.5213129332       -2.5244357348
 H          6.4818015358       -1.0605866287       -0.8709106987
 C          4.5358116973       -0.5079728073       -1.6218303030
 H          4.8655358948        0.3955079267       -2.1490207806
 H          3.7649794429       -0.9493479638       -2.2641477723
 H          4.3117080265       -2.7827678202        2.2085054656
 H          5.9546718634       -3.0465982413        1.6156613940
 H          5.3735594006       -0.7198398570        2.5196575206
 H          6.2009800461       -0.7582903311        0.9677696286
 O          3.3896396390        0.3058523686        1.9234344526
 C          2.2654466614        1.0736866283        1.6942024582
 O          1.6803528720        1.4595076151        2.7279427298
 O          2.2860496367        0.9621109266       -1.9171789708
 C          0.6663932928        2.1792241019        0.1293411506
 C         -0.3882267483        1.3623188498       -0.5778093765
 C         -1.0556242173        1.7864306561       -1.7185016328
 C         -2.0087518379        0.9772905191       -2.3144696160
 C         -2.3253102182       -0.2586308680       -1.7830158883
 C         -1.6787249804       -0.6828653395       -0.6280606416
 C         -0.7246952016        0.1279528799       -0.0339493733
 H         -0.2196251779       -0.2046072257        0.8651235335
 N         -2.0116395202       -1.9261564551       -0.0641957977
 S         -3.6351788938       -2.3150024175        0.0587314933
 O         -3.7276728406       -3.2021807154        1.1972081935
 O         -4.1002149991       -2.8539556798       -1.1951094291
 C         -4.4667786594       -0.7720616641        0.3945193272
 C         -5.4341348876       -0.3085696565       -0.4736259883
 C         -6.0470379951        0.9056051844       -0.2082491663
 C         -5.6800868354        1.6336197720        0.9126233811
 C         -4.7086178330        1.1528859615        1.7774956487
 C         -4.0948329776       -0.0617212366        1.5188004030
 H         -3.3386573031       -0.4626007319        2.1751748124
 H         -4.4230900469        1.7199091621        2.6491293296
 H         -6.1530327151        2.5813866431        1.1157758566
 H         -6.8042938661        1.2807953967       -0.8774890392
 H         -5.6852788224       -0.9050541285       -1.3355146117
 H         -1.5167346006       -2.1367846630        0.7895925156
 H         -3.0526566776       -0.9061618274       -2.2452107521
 H         -2.5101907076        1.3136558443       -3.2088526583
 H         -0.8224331652        2.7456579695       -2.1495118392
 H          0.2789892352        2.4387827383        1.1255223865
 C          1.0401390234        3.4548722120       -0.5950168653
 C          0.2149047398        4.6921759725       -0.4136771177
 C          1.5789182348        4.6044718011        0.2003968290
 H          2.3770910538        5.1955046414       -0.2230671836
 H          1.6539612918        4.4754336512        1.2706641865
 H          0.0774279206        5.3491742124       -1.2590563949
 H         -0.6398914681        4.6312346672        0.2425597200
 H          1.4829226419        3.2684245485       -1.5662996120
