  62
        -98.95040800
 C         -1.7236094157       -1.3279852457       -0.2379937505
 C         -2.8650081916       -0.7532223299        0.3659918471
 C         -3.3355530916        0.5080039836       -0.2194957003
 C         -2.6769029853        1.0331597442       -1.2690890864
 C         -3.0225544696        2.3341145941       -1.9331223411
 C         -2.2436583411        3.5013370349       -1.3120053317
 C         -2.3121160593        3.5512933747        0.2143372435
 H         -1.7665092270        2.6946194525        0.6182286802
 H         -1.7659921084        4.4427115593        0.5326449803
 C         -3.7342261218        3.5883612619        0.7911654414
 H         -3.7662639275        4.3357895589        1.5868621651
 H         -4.4376606636        3.9050357398        0.0198586673
 C         -4.2107937372        2.2692502413        1.4019294796
 H         -3.4534222548        1.8966597370        2.0968991957
 H         -5.1167920828        2.4698877709        1.9804577044
 C         -4.5413985703        1.1522209871        0.4042462736
 H         -5.2179510650        1.5328548249       -0.3636812449
 H         -5.0552505713        0.3574335025        0.9532530898
 H         -1.1918003301        3.4067426749       -1.5925457653
 H         -2.6289979977        4.4344903507       -1.7284022834
 H         -4.0930630754        2.5095024989       -1.8428947295
 H         -2.7627688927        2.2593931718       -2.9906656269
 O         -1.5926036037        0.4452867337       -1.8325237901
 C         -1.0701829979       -0.7266042048       -1.3128600610
 O         -0.0476433408       -1.1381995030       -1.8956543413
 O         -3.4613428095       -1.2714888970        1.3504884951
 C         -1.1454752398       -2.6079427441        0.3365978177
 C          0.2924910392       -2.3938796597        0.7415433228
 C          1.2841880783       -3.3520737075        0.5691139108
 C          2.5913197087       -3.0866215113        0.9402147234
 C          2.9431433716       -1.8557912921        1.4634993374
 C          1.9565168800       -0.8948992457        1.6481604222
 C          0.6423388104       -1.1805315328        1.3197425204
 H         -0.1101992214       -0.4212870171        1.4756466119
 N          2.2568305880        0.3958743649        2.1372622433
 S          2.0465246278        1.6428110528        1.0303344767
 O          2.4957485765        2.8364849247        1.7157671185
 O          0.6890608620        1.6527477764        0.5549611077
 C          3.1988058158        1.2395307214       -0.2705867600
 C          2.8448400642        0.3181929064       -1.2355377195
 C          3.7946026289       -0.0565961761       -2.1748034396
 C          5.0688696430        0.4868565470       -2.1326051736
 C          5.4065504147        1.4128499776       -1.1565674781
 C          4.4660536582        1.7888702193       -0.2120918419
 H          4.6805817426        2.5056715307        0.5643198430
 H          6.3970937244        1.8374278530       -1.1265988852
 H          5.8016022243        0.1871816706       -2.8652540192
 H          3.5233564219       -0.7765435603       -2.9302559204
 H          1.8460611798       -0.0909062500       -1.2572966572
 H          3.1834956549        0.4700630364        2.5361125143
 H          3.9677290978       -1.6362974414        1.7238701414
 H          3.3497413123       -3.8413805202        0.7996772956
 H          1.0337307804       -4.3070154328        0.1366978969
 H         -1.7349891800       -2.8164848730        1.2425038614
 C         -1.3264897236       -3.7544928907       -0.6376240277
 C         -1.5357896777       -5.1523002064       -0.1384045962
 C         -2.6748741085       -4.3977353901       -0.7530142459
 H         -3.0244676329       -4.6913832559       -1.7313600307
 H         -3.4552166749       -4.0269005742       -0.1044624176
 H         -1.1051711070       -5.9692699431       -0.6975702234
 H         -1.5505289864       -5.3055483643        0.9300889880
 H         -0.7593882490       -3.6139210416       -1.5511061371
