  62
        -98.93816458
 C          2.6940960682        1.2298960909        0.2418440300
 C          3.0063876939        0.2562976239        1.2257252641
 C          4.1397346502       -0.6256901369        0.9328550431
 C          4.8318062775       -0.4600340218       -0.2086664947
 C          6.0244024536       -1.2659070209       -0.6468344802
 C          5.6618331513       -2.5839113333       -1.3449705000
 C          5.1154746427       -3.6781650608       -0.4269517558
 H          5.1115706030       -4.6059420993       -1.0025424072
 H          5.7961967317       -3.8194904663        0.4131528576
 C          3.6960013104       -3.4168121670        0.0961396082
 H          3.2169766793       -2.6480711069       -0.5148679573
 H          3.0972226579       -4.3245725879       -0.0063892338
 C          3.6284257541       -2.9939641627        1.5637652933
 H          2.5829787851       -2.7974323143        1.8152025164
 H          3.9801820990       -3.8110285602        2.1976491358
 C          4.4392341640       -1.7344285589        1.8957595075
 H          5.5051498104       -1.9613622545        1.8960886263
 H          4.1524387054       -1.3945513184        2.8939663310
 H          4.9350594930       -2.3730615750       -2.1328417056
 H          6.5697530184       -2.9599096629       -1.8222220198
 H          6.5783203738       -0.6433411942       -1.3527347337
 H          6.6640418440       -1.4711236719        0.2120170584
 O          4.5222635434        0.5034985975       -1.1136980587
 C          3.4322069853        1.3498907365       -0.9364385614
 O          3.2582781712        2.1395567639       -1.8818340326
 O          2.3666002610        0.1379088685        2.3055338227
 C          1.4950052302        2.1159487627        0.5297464890
 C          0.2446656032        1.4749059985       -0.0168465171
 C          0.1406461883        1.1303519261       -1.3615016889
 C         -1.0077845479        0.5284387356       -1.8414853263
 C         -2.0669071344        0.2465191492       -0.9953753854
 C         -1.9719301197        0.5810912629        0.3483178685
 C         -0.8210099627        1.1977695320        0.8257398822
 H         -0.7452279603        1.4462781758        1.8758136461
 N         -3.0244713177        0.2703617739        1.2201698264
 S         -4.6099741097        0.5429102088        0.7531049447
 O         -4.7079193433        1.6595990448       -0.1574476036
 O         -5.3485275321        0.6560676793        1.9913565101
 C         -5.0805876929       -0.9641880595       -0.0697473312
 C         -4.8882493761       -2.1588813326        0.5960190695
 C         -5.2589123198       -3.3393974314       -0.0276289824
 C         -5.8160608935       -3.3056630086       -1.2973989467
 C         -6.0068386179       -2.0978287990       -1.9506796050
 C         -5.6367895433       -0.9133087033       -1.3328166795
 H         -5.7611483223        0.0480775367       -1.8055478733
 H         -6.4405782517       -2.0735031544       -2.9374870271
 H         -6.1028938643       -4.2263827065       -1.7805322164
 H         -5.1117287003       -4.2806106580        0.4772268083
 H         -4.4549875695       -2.1438702633        1.5822418579
 H         -2.8644957058        0.5371587884        2.1801476490
 H         -2.9605121085       -0.2268186676       -1.3676470667
 H         -1.0782927785        0.2693615255       -2.8871471365
 H          0.9697643796        1.3405215090       -2.0206388276
 H          1.4100099680        2.1163808660        1.6282708084
 C          1.6809729683        3.5614526908        0.0924499055
 C          0.8780156290        4.2195900551       -0.9852621462
 C          0.6423268703        4.5847266572        0.4476389639
 H          0.9646191495        5.5527398532        0.8001247824
 H         -0.2682398296        4.2281850737        0.9067407287
 H          1.3874114639        4.9229407107       -1.6260280612
 H          0.1219034732        3.6407405092       -1.4915787209
 H          2.7161520167        3.8768307535        0.1721450297
