  62
        -98.94136603
 C         -1.8348434261       -1.3536283477        0.6282593065
 C         -1.7853581872       -0.0385276047        1.1585891969
 C         -2.9965636833        0.7767236706        1.0078356789
 C         -4.0803383172        0.2338028526        0.4245072605
 C         -5.3748124581        0.9524538494        0.1781951538
 C         -5.3940113762        1.6085075895       -1.2093168398
 C         -4.1454348832        2.4344623897       -1.5182796721
 H         -3.2837802499        1.7659027046       -1.5834209451
 H         -4.2847978259        2.8760095021       -2.5074039293
 C         -3.8497379302        3.5442838905       -0.4997314564
 H         -3.5915598827        4.4560938270       -1.0422260731
 H         -4.7444967114        3.7585634432        0.0857635442
 C         -2.6840486389        3.2426039784        0.4441707342
 H         -2.4126167062        4.1703555076        0.9551320555
 H         -1.8197242060        2.9207216604       -0.1424298040
 C         -2.9552533009        2.1872333740        1.5245174902
 H         -3.8775913499        2.4318775348        2.0554171470
 H         -2.1297180870        2.2187299637        2.2420398608
 H         -6.2797274224        2.2427345604       -1.2787461713
 H         -5.4795675797        0.8220384605       -1.9627261334
 H         -6.1870692689        0.2259454871        0.2379818679
 H         -5.5177507430        1.7056508147        0.9507064462
 O         -4.1014154297       -1.0350807990       -0.0512768354
 C         -2.9755516807       -1.8528755435       -0.0018350233
 O         -3.1456477274       -2.9620244113       -0.5379767238
 O         -0.7682066071        0.4282255781        1.7380763967
 C         -0.5596520833       -2.1678664219        0.7544434121
 C          0.3824948113       -1.8248301041       -0.3718748956
 C         -0.0543797346       -1.8079146741       -1.6931502407
 C          0.8192589383       -1.4808871864       -2.7134173213
 C          2.1347717293       -1.1506229468       -2.4360651610
 C          2.5812192016       -1.1625323938       -1.1197625941
 C          1.7040625971       -1.5073239418       -0.0990831018
 H          2.0636457881       -1.5139055651        0.9184275113
 N          3.9163879967       -0.8563701424       -0.8167185667
 S          4.3173373651        0.1294252731        0.4755423097
 O          5.7266254478        0.3961535033        0.2900357535
 O          3.9483962036       -0.5082536643        1.7127593533
 C          3.3893008550        1.6306666662        0.2235934556
 C          2.1117114754        1.7540349797        0.7298558874
 C          1.4045575736        2.9193291751        0.4769626078
 C          1.9766039723        3.9330161902       -0.2744721523
 C          3.2623813589        3.7930471154       -0.7763546630
 C          3.9749069963        2.6318041721       -0.5288675174
 H          4.9808237050        2.4868977810       -0.8886129150
 H          3.7087262925        4.5836457533       -1.3578792305
 H          1.4187738389        4.8360749231       -0.4666359777
 H          0.4061318126        3.0106360505        0.8741686027
 H          1.6670970076        0.9616746825        1.3099080677
 H          4.4834417144       -0.6290475963       -1.6208439450
 H          2.8130802080       -0.8895087856       -3.2339091858
 H          0.4713213846       -1.4757847982       -3.7354113804
 H         -1.0828731647       -2.0599967565       -1.9077625810
 H         -0.0878883943       -1.8184564140        1.6879246142
 C         -0.7855367868       -3.6645920531        0.9017290916
 C         -0.4511961331       -4.6585720214       -0.1654517428
 C          0.3906595643       -4.5805259378        1.0705881633
 H          0.3258217912       -5.3776966088        1.7955958805
 H          1.3755711904       -4.1461784668        0.9794727267
 H         -1.1179233283       -5.4977232685       -0.2913143350
 H         -0.0325486709       -4.2946772109       -1.0904644325
 H         -1.6620952941       -3.8848137676        1.5019766035
