  62
        -98.93901378
 C          1.9787626161        1.5433982089       -0.2935948788
 C          2.8645772437        1.2469787928        0.7762374606
 C          4.0290844502        0.4177277642        0.4552360707
 C          4.2119165501       -0.0043566795       -0.8085339070
 C          5.3552753109       -0.8475895595       -1.3048143505
 C          5.1569545347       -2.3542124919       -1.0896112663
 C          5.2861830743       -2.8270835724        0.3590021604
 H          5.3442480767       -3.9171140285        0.3353916352
 H          6.2238444653       -2.4596551557        0.7771669901
 C          4.1185529679       -2.4151967099        1.2668633947
 H          3.2650032546       -2.1180738406        0.6523383181
 H          3.7982449439       -3.2745788870        1.8603748314
 C          4.4427567579       -1.2848987179        2.2440422528
 H          3.5355339327       -1.0488773057        2.8061321214
 H          5.2024419376       -1.6210400044        2.9532007358
 C          4.9344173149        0.0059673197        1.5763832587
 H          5.9543941986       -0.1215643517        1.2144468196
 H          4.9226043725        0.8039607053        2.3226851648
 H          4.1756628315       -2.6363748622       -1.4791160448
 H          5.9118993261       -2.8708626639       -1.6869495970
 H          5.4364878247       -0.6607875483       -2.3778232449
 H          6.2809471413       -0.5285893628       -0.8248252016
 O          3.3576687379        0.3189606331       -1.8128111718
 C          2.2061988341        1.0746355024       -1.5877913327
 O          1.5291591211        1.2492462391       -2.6160958823
 O          2.6858957697        1.6700328172        1.9495971623
 C          0.7517889380        2.3514716702        0.0932653938
 C         -0.2206461966        1.4656629962        0.8327249852
 C         -0.7898528404        1.8850304183        2.0302001442
 C         -1.6610847668        1.0660714298        2.7253372399
 C         -1.9980145016       -0.1784353939        2.2247769524
 C         -1.4387755790       -0.6056802181        1.0263297914
 C         -0.5481458501        0.2088738552        0.3421642179
 H         -0.1124206819       -0.1440002427       -0.5816859090
 N         -1.7804192957       -1.8600121369        0.4698994125
 S         -2.7574747121       -1.7898189235       -0.8915017984
 O         -3.0724582235       -3.1633081476       -1.2151446316
 O         -2.1080726756       -1.0104533099       -1.9112589046
 C         -4.2261137398       -0.9548227755       -0.3146620389
 C         -5.2917148937       -1.7080121591        0.1385599859
 C         -6.3986559537       -1.0577972162        0.6601219297
 C         -6.4155563634        0.3271404595        0.7299813252
 C         -5.3365610320        1.0688847543        0.2739234494
 C         -4.2282677621        0.4246244384       -0.2530334503
 H         -3.3743680088        0.9688317471       -0.6230707822
 H         -5.3495590776        2.1455292759        0.3266642075
 H         -7.2754647762        0.8326138657        1.1401205895
 H         -7.2407039434       -1.6316790992        1.0121038334
 H         -5.2351361650       -2.7818526342        0.0606823380
 H         -2.1987758564       -2.4935733504        1.1383424037
 H         -2.6808416807       -0.8216159804        2.7595741091
 H         -2.0848634959        1.4003869393        3.6595619587
 H         -0.5244883605        2.8542287893        2.4254647400
 H          1.1154769640        3.0986150919        0.8185612149
 C          0.0974381576        3.1193568531       -1.0425067242
 C         -1.0463714756        2.5889461624       -1.8473738917
 C         -1.2766112607        3.6983360200       -0.8679816928
 H         -1.4703199647        4.6885971007       -1.2512757273
 H         -1.8045330079        3.4630997104        0.0441606152
 H         -1.0534050678        2.8122481665       -2.9034674000
 H         -1.4119840182        1.5967627061       -1.6310557031
 H          0.8189830220        3.7221909098       -1.5843698382
