  62
        -98.94489982
 C         -2.0256415575       -1.4293573529        0.1099596780
 C         -2.0061446608       -0.5705919223       -1.0155701560
 C         -2.8719737243        0.6159957971       -0.9347385204
 C         -3.6204830841        0.8219075756        0.1632953890
 C         -4.5008986232        2.0148873182        0.3942910745
 C         -3.7411574191        3.1389331406        1.1124875345
 C         -2.3864279722        3.4700225588        0.4861367556
 H         -1.9639896471        4.3010333051        1.0545412071
 H         -1.7168775834        2.6162401643        0.6124198102
 C         -2.4485312568        3.8498091467       -0.9999748972
 H         -3.4684797247        4.1257552654       -1.2701136598
 H         -1.8244460660        4.7308659755       -1.1648946984
 C         -1.9507893353        2.7626045015       -1.9545437095
 H         -1.8253194900        3.2098922572       -2.9443653553
 H         -0.9710118952        2.4046114548       -1.6282658563
 C         -2.8732993645        1.5478263249       -2.1141920043
 H         -3.8878593844        1.8810813402       -2.3415586608
 H         -2.5078058347        0.9609066462       -2.9618862713
 H         -4.3708511452        4.0305376403        1.1173519882
 H         -3.5735910212        2.8354036968        2.1483194005
 H         -4.8797103658        2.3708816354       -0.5618837087
 H         -5.3435455063        1.7042726774        1.0143610844
 O         -3.6234480163       -0.0283108410        1.2203745602
 C         -2.8313047212       -1.1615694535        1.2228533535
 O         -2.9332625680       -1.8510288823        2.2568953336
 O         -1.3129888471       -0.7612991758       -2.0514154928
 C         -1.1984957489       -2.7039734196        0.2000386036
 C          0.2466380280       -2.3919225457        0.5091072722
 C          0.7887715998       -2.7071988191        1.7497898432
 C          2.1127330917       -2.4208803025        2.0337521632
 C          2.9209258428       -1.8114892727        1.0906412980
 C          2.3827581090       -1.4740685188       -0.1447977525
 C          1.0569783817       -1.7697291514       -0.4300237776
 H          0.6404226949       -1.4951537400       -1.3873829775
 N          3.1837982333       -0.8475982128       -1.1171185239
 S          4.1074930466        0.4777150258       -0.6882734119
 O          4.4831228354        1.0974677430       -1.9380295323
 O          5.1907375564        0.0474622347        0.1599205485
 C          3.0137997438        1.5508629373        0.2235672712
 C          2.9811430421        1.4848626999        1.6018700810
 C          2.0931743455        2.2964372733        2.2899575683
 C          1.2633605693        3.1600340621        1.5925552366
 C          1.3140128641        3.2210454089        0.2082208232
 C          2.1902877565        2.4028550535       -0.4855830675
 H          2.2617830120        2.4238077823       -1.5614457901
 H          0.6724533420        3.9001227347       -0.3298707957
 H          0.5751539518        3.7927547727        2.1305076062
 H          2.0525759945        2.2531200273        3.3665059512
 H          3.6531504173        0.8141298567        2.1105833304
 H          2.6894266365       -0.6669709949       -1.9791629404
 H          3.9571558905       -1.5928718092        1.2916521003
 H          2.5220706467       -2.6791988599        2.9986054312
 H          0.1604782163       -3.1722076699        2.4957839581
 H         -1.6087452227       -3.2586817668        1.0541270863
 C         -1.3257521552       -3.5735734182       -1.0361888462
 C         -0.9860530276       -5.0289872037       -0.9370138971
 C         -2.4134904696       -4.6011669500       -1.0979334383
 H         -2.9035745226       -4.7768174471       -2.0438890182
 H         -3.0710224003       -4.6851996178       -0.2446060621
 H         -0.4929418985       -5.5012738733       -1.7727969062
 H         -0.6758541479       -5.4055553422        0.0260558368
 H         -1.0788398179       -3.0603485669       -1.9558798698
