  62
        -98.93817030
 C          1.0241794882        1.8483923700        0.2862118153
 C          1.6490474194        1.3238967307       -0.8688983742
 C          2.7924420535        0.4171587961       -0.6450343646
 C          3.0967615051        0.0240434098        0.6048836519
 C          4.1915489582       -0.8809524273        1.1290263615
 C          4.9975218297       -1.7662436595        0.1820376220
 C          4.2028260993       -2.8948910872       -0.4734984213
 H          4.8560947374       -3.4008329208       -1.1877888257
 H          3.9299668698       -3.6196631949        0.2973617654
 C          2.9205430271       -2.4719662761       -1.1860256229
 H          2.4599320733       -3.3691271361       -1.6083995883
 H          2.2162164935       -2.0575260924       -0.4622773442
 C          3.1038752341       -1.4666260980       -2.3202404247
 H          3.8457872352       -1.8377404014       -3.0301003558
 H          2.1490848660       -1.3874816019       -2.8476393131
 C          3.5088867369       -0.0491819415       -1.8806372365
 H          4.5851456210        0.0302178802       -1.7461757222
 H          3.2272248264        0.6424124391       -2.6800369770
 H          5.7866556833       -2.2260928962        0.7832694964
 H          5.4916432264       -1.1611974412       -0.5724063457
 H          4.8875494195       -0.2250188460        1.6636624614
 H          3.7181772993       -1.5104425714        1.8884836336
 O          2.3981208204        0.4783176414        1.6855571015
 C          1.3886689069        1.4124168207        1.5626231269
 O          0.8878530251        1.7706554100        2.6464472259
 H         -0.7830480554        0.7020272261       -1.2526274645
 C         -1.6199029982        1.0753223562       -0.6808635711
 C         -1.4545186151        2.1894617766        0.1281791419
 C         -2.5513711971        2.6586222117        0.8416743121
 C         -3.7805164743        2.0296717871        0.7449628925
 C         -3.9366967332        0.9072411034       -0.0493512215
 C         -2.8434068427        0.4252161308       -0.7566452042
 N         -2.9777104005       -0.7620787011       -1.5134600550
 S         -3.1611940343       -2.1593004649       -0.6058229012
 O         -3.1010981819       -3.2526227221       -1.5479982059
 O         -4.3718202128       -2.0454213857        0.1660664192
 C         -1.7507835492       -2.2280795998        0.4887503653
 C         -0.7543625635       -3.1499055882        0.2380854649
 C          0.3479950910       -3.1925749398        1.0768137457
 C          0.4492514299       -2.2948067203        2.1283994449
 C         -0.5538577030       -1.3673190205        2.3621895961
 C         -1.6722637753       -1.3396758236        1.5440636483
 H         -2.4773561510       -0.6454233917        1.7203835317
 H         -0.4617740497       -0.6548398939        3.1670519124
 H          1.3132879292       -2.3119174526        2.7743758658
 H          1.1230915431       -3.9226026980        0.9069663217
 H         -0.8668511534       -3.8206009707       -0.5985732539
 H         -2.2185991164       -0.8956559358       -2.1680546276
 H         -4.8746942759        0.3799563777       -0.1067827189
 H         -4.6231784149        2.4079933540        1.3032413031
 H         -2.4337271017        3.5145059062        1.4891031186
 C         -0.1071299496        2.8616921897        0.2504452201
 H         -0.0823620402        3.3715896674        1.2235606982
 C          0.0516939210        3.9062208996       -0.8385515445
 C         -0.5426401280        5.2676153043       -0.6490091748
 C          0.9443218287        5.0854752057       -0.6018446477
 H          1.5406061362        5.4521356460       -1.4236246082
 H          1.4359806671        5.1546001189        0.3578757791
 H         -0.9737137792        5.7627013979       -1.5055287695
 H         -1.0546660616        5.4712947463        0.2789292120
 H          0.0398714171        3.4858735442       -1.8356327260
 O          1.2917782799        1.5797419662       -2.0505546710
