  62
        -98.93910297
 C         -1.8945662857       -0.2031645845       -0.0320165033
 C         -2.9331262117       -0.9966749959        0.5067368911
 C         -4.2532864356       -0.3567755058        0.6387410564
 C         -4.4073707338        0.9231656546        0.2508809588
 C         -5.6100206673        1.8420722161        0.3084820912
 C         -7.0112499929        1.2838399691        0.5441302849
 C         -7.5535808597        0.4141982979       -0.5894155595
 H         -7.7388611724        1.0510465262       -1.4581434468
 H         -8.5123558183       -0.0012908156       -0.2715469618
 C         -6.6431445198       -0.7255016921       -1.0398766047
 H         -5.7220797030       -0.3153772437       -1.4593045389
 H         -7.1522954455       -1.2608193745       -1.8460016852
 C         -6.2860988354       -1.7440080499        0.0410477724
 H         -5.7766279064       -2.5777220944       -0.4494779291
 H         -7.1991208421       -2.1319558481        0.4967437876
 C         -5.3603309497       -1.2290058620        1.1570944681
 H         -4.8772525728       -2.0941459004        1.6204522750
 H         -5.9229892850       -0.7151401739        1.9327767083
 H         -7.6756726428        2.1465077973        0.6441759614
 H         -7.0496922082        0.7468253416        1.4872378317
 H         -5.6010114840        2.4006491698       -0.6328779066
 H         -5.3901472958        2.5687425107        1.0985748271
 O         -3.3695960324        1.6528439399       -0.2551928836
 C         -2.1004002496        1.1203020697       -0.4156711205
 O         -1.2704036100        1.9129615672       -0.8992788356
 O         -2.7638280006       -2.1899583335        0.8755728426
 C         -0.5137933765       -0.8139269218       -0.1957409018
 C          0.4866795490       -0.0159722154        0.6017626737
 C          0.2832438912        0.1173762357        1.9740927673
 C          1.1467280758        0.8669084000        2.7473513232
 C          2.2397087522        1.4916284805        2.1710775764
 C          2.4548143126        1.3627122463        0.8049904874
 C          1.5845336362        0.6056086925        0.0300023182
 H          1.7666345113        0.5415400419       -1.0289611117
 N          3.5440761302        2.0048562396        0.1947686265
 S          4.4991041851        1.2054135450       -0.9182098509
 O          5.6806787231        2.0308865047       -1.0376968039
 O          3.7658403409        0.9607083135       -2.1331109769
 C          4.9145964153       -0.3337827198       -0.1191872464
 C          4.1568971128       -1.4598861352       -0.3682719790
 C          4.4531664888       -2.6291618064        0.3147316923
 C          5.4946410400       -2.6521184490        1.2291930679
 C          6.2491996857       -1.5127243200        1.4652286206
 C          5.9554254231       -0.3398948171        0.7893437361
 H          6.5233584677        0.5646531452        0.9352172556
 H          7.0616075262       -1.5351019511        2.1735917507
 H          5.7205964583       -3.5644007167        1.7584083261
 H          3.8686977711       -3.5164302650        0.1302166912
 H          3.3583328542       -1.4056672130       -1.0892857394
 H          4.1124560987        2.5503407320        0.8259614369
 H          2.9118091948        2.0858583813        2.7713603135
 H          0.9714669721        0.9661345484        3.8079598909
 H         -0.5737912470       -0.3672840439        2.4216727811
 H         -0.5875543682       -1.8176802434        0.2479704964
 C         -0.1656481283       -0.9556637622       -1.6615773665
 C          0.7725383933       -2.0347760915       -2.1096102750
 C         -0.6898694862       -2.1355596539       -2.4217315769
 H         -1.0139989221       -1.9888464598       -3.4411447430
 H         -1.2811351583       -2.8551167403       -1.8743515590
 H          1.4583680368       -1.8187284799       -2.9157636048
 H          1.1674665357       -2.6955692495       -1.3525334400
 H         -0.1368398629       -0.0049613239       -2.1828182435
