  62
        -98.93554144
 C         -2.5301997698       -0.8343863892        0.7653531595
 C         -2.8437999299       -0.3624417101       -0.5338162108
 C         -3.5784787201        0.9126340598       -0.5916238715
 C         -3.8856607002        1.5558328604        0.5484722481
 C         -4.5857503204        2.8808855904        0.6278440872
 C         -3.5809011706        4.0413463305        0.6411071365
 C         -2.5219796606        3.9544945600       -0.4581524734
 H         -1.8894653607        4.8405195302       -0.3711049639
 H         -1.8855464704        3.0857187903       -0.2739697128
 C         -3.0901716205        3.8701979291       -1.8816796833
 H         -4.1286081106        4.2034695389       -1.8866758036
 H         -2.5281706006        4.5512374688       -2.5241126537
 C         -3.0012090103        2.4821492587       -2.5189845625
 H         -3.2221226003        2.5826977480       -3.5849965626
 H         -1.9800875802        2.1013970589       -2.4323309922
 C         -3.9578593301        1.4254593089       -1.9524321219
 H         -4.9773873302        1.8166593387       -1.9464770421
 H         -3.9252324700        0.5589003285       -2.6194171913
 H         -3.0717899906        4.0472088412        1.6076894166
 H         -4.1339361608        4.9771589604        0.5428089060
 H         -5.2605836404        2.9800146897       -0.2201183629
 H         -5.1690833205        2.9066177408        1.5498621472
 O         -3.5394121502        1.0882023612        1.7754047383
 C         -2.8422822700       -0.1005950186        1.9126941491
 O         -2.5544614699       -0.3894105978        3.0919921193
 H          0.2964928701       -0.4811258086        0.9814154394
 C          0.4140953803       -1.2354761491        0.2118388699
 C         -0.5800518896       -2.1942917293        0.0555456604
 C         -0.4212213794       -3.1592388699       -0.9290492190
 C          0.6988595906       -3.1494461502       -1.7421885090
 C          1.6797488305       -2.1871926100       -1.5920001895
 C          1.5340450603       -1.2195870694       -0.6059169501
 N          2.5194705501       -0.2238278191       -0.4521033607
 S          4.1290942902       -0.7409594589       -0.4787404603
 O          4.5371169103       -0.8911817396       -1.8529995402
 O          4.2889440804       -1.9094883883        0.3580318304
 C          4.9580101100        0.6606998617        0.2441482488
 C          5.1976182898        1.7693724413       -0.5455617718
 C          5.8259864796        2.8685377417        0.0176616375
 C          6.2025855596        2.8408213926        1.3524364675
 C          5.9563826797        1.7204877430        2.1316826282
 C          5.3263726399        0.6182748726        1.5753099789
 H          5.1220269701       -0.2769131971        2.1407653494
 H          6.2529144597        1.7005337737        3.1680549082
 H          6.6936231694        3.6967402429        1.7878456970
 H          6.0214393795        3.7408357914       -0.5849117230
 H          4.8965385198        1.7421200906       -1.5797570418
 H          2.3451836700        0.3557094013        0.3579562289
 H          2.5564943605       -2.1734982202       -2.2192826295
 H          0.8080640808       -3.9012055507       -2.5095853185
 H         -1.1848814293       -3.9048887401       -1.0765797585
 C         -1.7688547196       -2.1312202490        0.9835951504
 H         -1.3814589596       -2.0604316683        2.0138032303
 C         -2.6346294694       -3.3813735991        0.9389162811
 C         -4.0705387494       -3.3376474791        1.3669513310
 C         -3.7239950593       -3.5777401299       -0.0701968588
 H         -3.8736915992       -4.5691398002       -0.4726228582
 H         -3.8952422995       -2.7875007804       -0.7832449993
 H         -4.4572825093       -4.1598736388        1.9500678215
 H         -4.4805606996       -2.3766017890        1.6421480704
 H         -2.0751073593       -4.2657213689        1.2290802717
 O         -2.5383545197       -0.9612777007       -1.5961152404
