  62
        -98.93436183
 C          1.6361290296        1.2200001200        0.6241800105
 C          1.8871848092       -0.1574493901        0.8617646501
 C          3.2550314292       -0.6334060203        0.6119799704
 C          4.1823207395        0.2440254297        0.1882834609
 C          5.5988239095       -0.0907436205       -0.1840123688
 C          5.6363029598       -0.7422333900       -1.5812003990
 C          6.0921296096       -2.2015894601       -1.5841516393
 H          5.8723830498       -2.6105347398       -2.5726821295
 H          7.1751217495       -2.2350945404       -1.4474723190
 C          5.4576922891       -3.1015636204       -0.5194246998
 H          5.6707328889       -4.1330588303       -0.8081577101
 H          5.9518633988       -2.9391617408        0.4396064404
 C          3.9436948690       -2.9469777601       -0.3245408202
 H          3.4785732694       -2.5457691297       -1.2252358202
 H          3.5197099688       -3.9400049401       -0.1629925406
 C          3.5377451088       -2.0848394904        0.8854019300
 H          4.3006480786       -2.1672685508        1.6646041702
 H          2.6032172886       -2.4775171404        1.2965213196
 H          4.6385809400       -0.6699246697       -2.0193719392
 H          6.3050550701       -0.1741317100       -2.2296597586
 H          6.1631261997        0.8420393194       -0.1848112183
 H          6.0276548792       -0.7568979508        0.5613189712
 O          3.9068389298        1.5544362898       -0.0282543787
 C          2.6365709399        2.0783713500        0.1691569211
 O          2.5595551402        3.2946444001       -0.0936818485
 O          1.0017418489       -0.9532860201        1.2747939496
 C          0.2185269296        1.6991939802        0.8825020102
 C         -0.5896020400        1.7503571508       -0.3921662900
 C         -0.2788476395        2.6347621011       -1.4197876196
 C         -1.0546662392        2.6721323316       -2.5637158898
 C         -2.1593083093        1.8486981719       -2.6969210204
 C         -2.4751365198        0.9583672416       -1.6775494108
 C         -1.6811057702        0.9075294911       -0.5404282906
 H         -1.9201098105        0.2045900208        0.2425257391
 N         -3.5747017499        0.0982797018       -1.7892105014
 S         -4.4756493704       -0.3179199684       -0.4426273418
 O         -5.7462935203       -0.7512119580       -0.9836869824
 O         -4.5293440905        0.7599578713        0.5169828285
 C         -3.6286999409       -1.7247273688        0.2426383680
 C         -3.3350697409       -2.7827864886       -0.5941973023
 C         -2.6887154012       -3.8901521889       -0.0700335925
 C         -2.3515184716       -3.9220227394        1.2745961676
 C         -2.6578620217       -2.8539455896        2.1027524379
 C         -3.3037945313       -1.7432898993        1.5840265680
 H         -3.5537571013       -0.8879469195        2.1925006483
 H         -2.3907622920       -2.8783818300        3.1470899379
 H         -1.8440938119       -4.7828629396        1.6805878575
 H         -2.4466964712       -4.7233769787       -0.7101466827
 H         -3.6144474605       -2.7223747282       -1.6328825724
 H         -4.1488331497        0.2366012022       -2.6076218116
 H         -2.7715856090        1.8916826623       -3.5849896506
 H         -0.8041398088        3.3601112118       -3.3572888795
 H          0.5787022405        3.2815484909       -1.3154591691
 H         -0.2308153708        0.9267195401        1.5215633298
 C          0.1332206696        3.0265583800        1.6111850806
 C         -1.1761081305        3.4205786300        2.2250546704
 C         -0.0211692508        3.0393624695        3.1008577406
 H          0.4772521392        3.8145922992        3.6633365210
 H         -0.0591615412        2.0868451394        3.6090790203
 H         -1.4706320803        4.4582062901        2.1857460106
 H         -2.0017259506        2.7297864602        2.1313379599
 H          0.7350892899        3.8065734200        1.1641244611
