  62
        -98.94297542
 C         -2.6811051378       -1.2001008272        0.1172413869
 C         -2.6960749296       -0.1901621642       -0.8744301203
 C         -3.8957227216        0.6591848267       -0.9010242986
 C         -4.8925405159        0.4212754319       -0.0290511026
 C         -6.1430730278        1.2426169116        0.0887421288
 C         -5.9696253083        2.3729605681        1.1130014622
 C         -4.6934754496        3.1921125017        0.9190845774
 H         -4.6932507715        3.9775232168        1.6780373836
 H         -3.8272562105        2.5559570017        1.1153128267
 C         -4.5504672150        3.8250821134       -0.4720567724
 H         -5.5203764271        3.8471954049       -0.9702616886
 H         -4.2233007300        4.8601405525       -0.3533971368
 C         -3.5296502820        3.1369154997       -1.3803239996
 H         -2.5805747058        3.0272412974       -0.8492896601
 H         -3.3496974904        3.7856813244       -2.2416495794
 C         -3.9388953053        1.7612732873       -1.9217065070
 H         -4.9274833283        1.8247540914       -2.3808629267
 H         -3.2171522013        1.4807398009       -2.6943808258
 H         -6.8389459565        3.0302172067        1.0521574643
 H         -5.9455238216        1.9332688835        2.1128469595
 H         -6.3930331376        1.6564622269       -0.8861366269
 H         -6.9541641432        0.5896122198        0.4153531933
 O         -4.8523992514       -0.5776738483        0.8901162057
 C         -3.7438427261       -1.4009835676        0.9973246954
 O         -3.8227918956       -2.2588928922        1.9002771462
 H          0.9640808100       -2.2043240577       -1.0498614086
 C          0.9299948799       -1.4660409578       -0.2638725859
 C         -0.2295318581       -1.2936041710        0.4739785576
 C         -0.2335539640       -0.3400292666        1.4891545762
 C          0.8841658549        0.4313598993        1.7397839139
 C          2.0340986904        0.2699078971        0.9859435614
 C          2.0556663293       -0.6880578826       -0.0170306262
 N          3.2129476771       -0.8550818319       -0.7918336960
 S          4.7121918163       -0.8996431073       -0.0464107476
 O          5.5642125367       -1.6241465751       -0.9639881257
 O          4.6221870861       -1.4255204000        1.2958969218
 C          5.2266161289        0.8044809199       -0.0034876349
 C          5.2118796614        1.5207116450       -1.1842719759
 C          5.6252167517        2.8431523279       -1.1697196106
 C          6.0473480575        3.4229786241        0.0174730346
 C          6.0594227976        2.6896232693        1.1939245317
 C          5.6459292434        1.3664570808        1.1862928684
 H          5.6336744673        0.7598095115        2.0779310624
 H          6.3883242825        3.1420842533        2.1156960145
 H          6.3687235028        4.4525627229        0.0255799315
 H          5.6161750505        3.4170485380       -2.0824175270
 H          4.8789477171        1.0346177997       -2.0861314593
 H          3.1339616959       -1.5594590217       -1.5103483608
 H          2.9080572403        0.8718804905        1.1736222386
 H          0.8612461369        1.1695471667        2.5273386073
 H         -1.1319961113       -0.2117946959        2.0784114464
 C         -1.4756626585       -2.1139911961        0.2435050080
 H         -1.6490446270       -2.7255439200        1.1412589865
 C         -1.3932630798       -3.0310228031       -0.9591069074
 C         -0.7442210217       -4.3766191583       -0.8403733342
 C         -2.2326718781       -4.2714469478       -0.9794225650
 H         -2.6872357164       -4.5720370860       -1.9114692217
 H         -2.8452888773       -4.4685773604       -0.1116141978
 H         -0.3430893735       -4.6557023577        0.1224952353
 H         -0.1786213440       -4.7546073350       -1.6791324584
 H         -1.2831916802       -2.4874798216       -1.8907143893
 O         -1.7590368815       -0.0062058077       -1.6940994574
