  62
        -98.94947910
 C         -0.8590466066       -1.7491981889       -0.2709210574
 C         -2.1467353839       -1.6980641534        0.3095679528
 C         -3.0211821713       -0.6213286932       -0.1672690456
 C         -2.5690470420        0.2437599451       -1.0930567415
 C         -3.3364497777        1.4036075522       -1.6683809476
 C         -3.3135757580        2.6615949194       -0.7886467228
 C         -4.1897176500        2.5989769806        0.4628428284
 H         -4.2743541368        3.6185164480        0.8446623393
 H         -5.1928141985        2.2666618038        0.1921976843
 C         -3.6286220711        1.7054525535        1.5779269281
 H         -2.5612952937        1.5369496408        1.4107035824
 H         -3.7130996312        2.2252955679        2.5356745398
 C         -4.3388918862        0.3602342276        1.7319529411
 H         -5.3654812090        0.5264109222        2.0680248996
 H         -3.8199156227       -0.2123463102        2.5050933317
 C         -4.3777929630       -0.4902698226        0.4565171253
 H         -4.7145899664       -1.4942137771        0.7282225586
 H         -5.0844493125       -0.0655293845       -0.2564672723
 H         -2.2836200626        2.8646273089       -0.4834791458
 H         -3.6519019793        3.4985939654       -1.4044452325
 H         -2.8688322479        1.6419643114       -2.6261066197
 H         -4.3700395130        1.1074242223       -1.8513297023
 O         -1.3320168308        0.1455570228       -1.6473235946
 C         -0.4404590101       -0.8355398421       -1.2389947027
 O          0.6669114611       -0.7940762159       -1.8067146884
 O         -2.5462113314       -2.5133517947        1.1862332047
 C          0.1327442409       -2.7850184344        0.2187364042
 C          1.3953728345       -2.1272372903        0.7227755790
 C          2.6302479001       -2.7662527992        0.7001424550
 C          3.7616173383       -2.1263176501        1.1750311368
 C          3.6962756818       -0.8296543609        1.6524191944
 C          2.4670066013       -0.1818297677        1.6764159564
 C          1.3298181108       -0.8432643540        1.2448089228
 H          0.3829795446       -0.3273420500        1.2935999790
 N          2.3438742065        1.1455068479        2.1259850309
 S          1.4154726554        2.2190915996        1.2449436361
 O          1.8307567491        3.5212738193        1.7299655224
 O          0.0124055008        1.9247791142        1.3991519623
 C          1.8918230630        2.0739148526       -0.4685040666
 C          0.9387013693        2.3484635513       -1.4257739004
 C          1.2897609144        2.2988235576       -2.7639374000
 C          2.5878308950        1.9761590813       -3.1222338848
 C          3.5381623064        1.7106951278       -2.1498431609
 C          3.1926820551        1.7647908075       -0.8095968411
 H          3.9208831110        1.5600369072       -0.0422629701
 H          4.5473942050        1.4553337188       -2.4307458731
 H          2.8579322978        1.9260859893       -4.1653664242
 H          0.5454230310        2.4985981273       -3.5181515541
 H         -0.0660066634        2.5766338056       -1.1076282630
 H          3.2076925253        1.5777887948        2.4208140696
 H          4.5831727022       -0.3241891262        2.0038083847
 H          4.7116525582       -2.6380399384        1.1569832162
 H          2.7051005725       -3.7673296606        0.3076428574
 H         -0.3591279991       -3.2876913986        1.0659939667
 C          0.4048753103       -3.8130147468       -0.8630041045
 C          0.6312135434       -5.2527169197       -0.5122940363
 C         -0.6488188909       -4.8338926117       -1.1684058627
 H         -0.8193275099       -5.1084396513       -2.1984781734
 H         -1.5474732038       -4.8079648672       -0.5692742002
 H          1.3411631832       -5.8196464699       -1.0955830078
 H          0.5941276358       -5.5276003111        0.5311776523
 H          0.9544390664       -3.3950145649       -1.6989591985
