  62
        -98.93864222
 C          2.1359779492        0.9069948712       -0.0005714958
 C          2.8808448972        0.2454929469        1.0024488572
 C          3.6222314718       -0.9556416385        0.5836390232
 C          3.5258961674       -1.3780324515       -0.6888038868
 C          4.1567911444       -2.5923824412       -1.3235413561
 C          5.6202341041       -2.8959343685       -0.9732657329
 C          6.4956395686       -1.6614039014       -0.7124399110
 H          7.4004278549       -1.7343403176       -1.3186065753
 H          5.9686942345       -0.7570311171       -1.0213755253
 C          6.9209604611       -1.5299755476        0.7519851588
 H          7.2126650529       -2.5155276392        1.1213318507
 H          7.8026724197       -0.8869461172        0.8049725822
 C          5.8709407026       -0.9350641693        1.6894311477
 H          5.7392944840        0.1281045212        1.4710122148
 H          6.2519793089       -1.0074952328        2.7108833907
 C          4.4837215779       -1.5956398618        1.6343338200
 H          4.5632454873       -2.6704932749        1.4906231322
 H          3.9844330566       -1.4078438567        2.5889734775
 H          5.6584209173       -3.5486307055       -0.1021896819
 H          6.0316744533       -3.4643711829       -1.8090347589
 H          3.5410134675       -3.4629098085       -1.0780388702
 H          4.0639928416       -2.4287448811       -2.3999535379
 O          2.7633133329       -0.7303174260       -1.6155866131
 C          2.0584539929        0.4226655067       -1.3054582836
 O          1.4189019192        0.9061779316       -2.2581800962
 H         -0.0829722785        0.1000838954        1.1793307777
 C         -0.6961955456        0.8000677903        0.6241032486
 C         -0.1091448986        1.9514776550        0.1129290093
 C         -0.9058724850        2.8393198275       -0.5969976496
 C         -2.2482160941        2.5673578794       -0.7994706802
 C         -2.8258459406        1.4176000393       -0.2941000056
 C         -2.0392469041        0.5248118871        0.4225561429
 N         -2.6185821988       -0.6406742513        0.9563979861
 S         -3.5245205731       -1.6140888242       -0.0707770062
 O         -3.4645527546       -2.9354611451        0.5168148440
 O         -3.0855486405       -1.4998215771       -1.4422758296
 C         -5.1796200904       -0.9796816263        0.1011367556
 C         -5.8835504636       -0.5786465301       -1.0173347251
 C         -7.1727859941       -0.0938648958       -0.8592452750
 C         -7.7320417429       -0.0202829468        0.4072755976
 C         -7.0124526018       -0.4296091671        1.5201847498
 C         -5.7239225237       -0.9162961018        1.3690561653
 H         -5.1325220190       -1.2479148036        2.2060139868
 H         -7.4504477585       -0.3706428969        2.5035139997
 H         -8.7346393246        0.3586138703        0.5276486918
 H         -7.7334775033        0.2243277141       -1.7234213126
 H         -5.4048751694       -0.6488747381       -1.9812962224
 H         -1.9707075206       -1.2026833976        1.4899094898
 H         -3.8689502514        1.2002823903       -0.4556062296
 H         -2.8536486628        3.2621996259       -1.3611581213
 H         -0.4744561357        3.7391469618       -1.0031769484
 C          1.3642628686        2.1634713882        0.3600203209
 H          1.5129372137        2.2966772757        1.4421686056
 C          1.9389967830        3.3635745250       -0.3620674335
 C          1.8207897965        4.7324256676        0.2366200023
 C          3.1487107730        4.0391319195        0.2085841211
 H          3.9072227881        4.3986514737       -0.4705125670
 H          3.5432317032        3.6484039787        1.1353426553
 H          1.6693233957        5.5725958595       -0.4239850684
 H          1.3155188863        4.8198978585        1.1863832200
 H          1.8822862158        3.2660346835       -1.4405301540
 O          2.9146709240        0.6323714978        2.2020795819
