  62
        -98.94231143
 C         -1.5761103415       -1.3842951290        0.4933607789
 C         -1.4043742647       -0.2050704551       -0.2742021798
 C         -2.2250194335        0.9464453664        0.1377441261
 C         -2.9919981073        0.8569034809        1.2382387538
 C         -3.9146634083        1.9317758268        1.7335909360
 C         -5.3245338436        1.7634323470        1.1497605678
 C         -5.3459570187        1.5636421849       -0.3658403065
 H         -4.8745881458        0.6079012255       -0.6065668038
 H         -6.3927882796        1.4889898914       -0.6682648969
 C         -4.6608263321        2.6815452861       -1.1642774537
 H         -4.5604314972        3.5718899204       -0.5425104636
 H         -5.2984704339        2.9476201639       -2.0099293018
 C         -3.2931736723        2.3054473217       -1.7377435886
 H         -3.3738976081        1.3626993910       -2.2845828605
 H         -3.0041530009        3.0764115535       -2.4566084061
 C         -2.1532299288        2.1784029693       -0.7191118235
 H         -1.2153927905        2.0948127539       -1.2750410582
 H         -2.1135756658        3.0771176250       -0.1007440957
 H         -5.9138772683        2.6442771662        1.4111399314
 H         -5.7913151260        0.8927849238        1.6167740894
 H         -3.9714034058        1.8632920267        2.8214025091
 H         -3.5115476206        2.9052170720        1.4612990527
 O         -3.0444393738       -0.2578272908        2.0129898429
 C         -2.3566545550       -1.4052678199        1.6516177158
 O         -2.5036730704       -2.3595252583        2.4422277332
 H          0.8836152448       -1.3934725847        1.6660711499
 C          1.3484993625       -1.7018637882        0.7368362363
 C          0.5866740086       -2.3870575137       -0.2024898285
 C          1.1911762796       -2.7691447479       -1.3922266824
 C          2.5224776415       -2.4724098231       -1.6284149686
 C          3.2760286255       -1.7894303187       -0.6925417979
 C          2.6772352041       -1.3919348807        0.4964975015
 N          3.4277087273       -0.6836331673        1.4545483452
 S          4.3024725185        0.6503627726        0.9465078863
 O          5.4627170233        0.2054537847        0.2159982652
 O          4.5631391149        1.4053403556        2.1519144452
 C          3.2155536030        1.5651064486       -0.1292859287
 C          3.3240562551        1.4297487170       -1.4979214717
 C          2.4434148801        2.1253222173       -2.3102120460
 C          1.4787084924        2.9422468352       -1.7436444664
 C          1.3840635975        3.0693239663       -0.3664781232
 C          2.2550559052        2.3693124151        0.4507067062
 H          2.2160337006        2.4471353488        1.5258704658
 H          0.6323196602        3.7056796948        0.0724536265
 H          0.7961799181        3.4848949726       -2.3788847815
 H          2.5102816173        2.0252788769       -3.3814696754
 H          4.0952640588        0.7952252845       -1.9018917927
 H          2.9031898775       -0.4577161641        2.2871580884
 H          4.3140294486       -1.5534056698       -0.8615791381
 H          2.9795469493       -2.7756653895       -2.5580863173
 H          0.6166560685       -3.2808227950       -2.1463062606
 C         -0.8551143443       -2.6734801464        0.1395736128
 H         -0.8644115762       -3.2698800597        1.0674044908
 C         -1.5707274586       -3.5044571452       -0.9161188878
 C         -3.0542425207       -3.4030506279       -1.1055663241
 C         -2.1272349206       -2.8943460807       -2.1661148741
 H         -2.0506154848       -3.4520957066       -3.0879755072
 H         -2.0187732411       -1.8287007707       -2.2900586255
 H         -3.6089196409       -4.3099830535       -1.2946050868
 H         -3.5896973531       -2.6849313756       -0.5011391303
 H         -1.1464669016       -4.4998480409       -1.0043945536
 O         -0.6193866504       -0.1056207638       -1.2502075940
