  62
        -98.94305689
 C         -1.7067553601       -1.0004169974        0.2740328364
 C         -2.9080163111       -0.8487738977        1.0172822399
 C         -3.6549565178        0.3983088892        0.8096222121
 C         -3.1459950512        1.3388722820       -0.0059415013
 C         -3.8143256631        2.6407710065       -0.3377224747
 C         -4.6945196865        2.5103088170       -1.5886628042
 C         -5.6386745661        1.3084221623       -1.5573320666
 H         -6.2305307312        1.3355681591       -2.4748624171
 H         -5.0483175867        0.3895527835       -1.5844187870
 C         -6.5783846345        1.2704135251       -0.3440225830
 H         -6.6318002782        2.2584960635        0.1145690888
 H         -7.5838682472        1.0185149796       -0.6878337102
 C         -6.1999795676        0.2380588358        0.7198959592
 H         -6.0565472583       -0.7377151250        0.2483962577
 H         -7.0385583850        0.1436289732        1.4149456399
 C         -4.9518721696        0.5622171266        1.5506201476
 H         -5.0362737870        1.5700846322        1.9621998782
 H         -4.9131338058       -0.1464770485        2.3831328083
 H         -5.2751814997        3.4278729916       -1.6995953149
 H         -4.0449795237        2.4122137077       -2.4616787442
 H         -4.4162104962        2.9604672019        0.5107188404
 H         -3.0417548931        3.3881028961       -0.5255851270
 O         -1.9710723679        1.1834663748       -0.6623707165
 C         -1.2305145138        0.0095998169       -0.5645050539
 O         -0.2031154402        0.0193009529       -1.2661594966
 O         -3.3353678673       -1.7196879488        1.8207186314
 C         -0.9185388960       -2.2812541806        0.4970443920
 C          0.5045422953       -1.9343633675        0.8470419325
 C          0.8268740911       -1.5686296945        2.1504245236
 C          2.1122646803       -1.1768477021        2.4763571305
 C          3.0940260786       -1.1111128056        1.5029155594
 C          2.7733098835       -1.4519810905        0.1954547342
 C          1.4946607718       -1.8906018929       -0.1209602913
 H          1.2574188609       -2.1516707267       -1.1402121480
 N          3.7422038064       -1.3294081250       -0.8139769956
 S          4.7618815012       -0.0063545714       -0.7704337119
 O          5.1113831647        0.2495426769       -2.1512636050
 O          5.8751464101       -0.2939072902        0.1030196186
 C          3.8386814401        1.3708693976       -0.1010030175
 C          2.5437676631        1.6043820565       -0.5180246294
 C          1.8613187904        2.6920505890        0.0041762181
 C          2.4798112091        3.5303413641        0.9178492091
 C          3.7838963664        3.2862074442        1.3203263484
 C          4.4694691955        2.1964077943        0.8093937356
 H          5.4796025495        1.9622012949        1.1045293319
 H          4.2651477802        3.9377726217        2.0318524757
 H          1.9413343738        4.3745981597        1.3190981291
 H          0.8423550184        2.8628310397       -0.3066651578
 H          2.0510619205        0.9435836872       -1.2134103398
 H          3.3747256058       -1.4702379812       -1.7438372197
 H          4.0986973654       -0.7960692482        1.7355397043
 H          2.3514898041       -0.9074887950        3.4937080900
 H          0.0536628375       -1.5879752118        2.9057306915
 H         -1.3890596414       -2.7370696187        1.3826563726
 C         -1.0208414139       -3.3067039142       -0.6221874155
 C         -2.3392628337       -3.5708678354       -1.2845409054
 C         -1.2222490711       -2.9451632036       -2.0619240539
 H         -0.7228393376       -3.5440922749       -2.8100168776
 H         -1.2950956387       -1.9008147333       -2.3208069727
 H         -2.6153700428       -4.5912122191       -1.5035737317
 H         -3.1709390900       -2.9450602610       -0.9948127835
 H         -0.3967342539       -4.1736188816       -0.4259416582
