  62
        -98.94514088
 C          1.4992405266        0.6008083431       -0.5262938212
 C          2.7072315738        1.1234561518        0.0060152392
 C          3.6221127683        0.1606691833        0.6302002764
 C          3.2640362399       -1.1343465019        0.6942410875
 C          4.1129636027       -2.2328110333        1.2646816225
 C          4.9912153580       -2.8769725498        0.1827736325
 C          5.7572288114       -1.8674648766       -0.6723080342
 H          6.3637136887       -2.4357276742       -1.3808047690
 H          5.0434105991       -1.2821833594       -1.2563576313
 C          6.6597808062       -0.9156047327        0.1250554072
 H          7.6266170298       -0.8465283452       -0.3778678018
 H          6.8407050823       -1.3234875907        1.1201946568
 C          6.1216248476        0.5107308958        0.2530099065
 H          6.9255649859        1.1441409428        0.6372361284
 H          5.8502068105        0.8898824958       -0.7353446088
 C          4.9157308169        0.6881946641        1.1843813036
 H          5.1306961097        0.2373186924        2.1555453997
 H          4.7628463651        1.7615022024        1.3305822761
 H          4.3503219915       -3.4677116853       -0.4757627989
 H          5.6955655106       -3.5545507587        0.6688419377
 H          4.7358203957       -1.8264320749        2.0594298615
 H          3.4524268295       -2.9924134169        1.6867979723
 O          2.0937981447       -1.5986477811        0.1930202223
 C          1.1831783610       -0.7549326533       -0.4308030109
 O          0.1744847081       -1.3491341074       -0.8552379223
 H         -1.5524142569        0.2472859250       -0.0943223888
 C         -1.4674243753        1.2400070386        0.3136750646
 C         -0.4419061994        2.0723204675       -0.1152186278
 C         -0.3200199981        3.3360910187        0.4512307417
 C         -1.2023017439        3.7547777101        1.4307366396
 C         -2.2168979033        2.9210856028        1.8622749185
 C         -2.3477448004        1.6529372179        1.3034835898
 N         -3.3886104616        0.8127523950        1.7123493139
 S         -3.2952931177       -0.8569759566        1.6508546775
 O         -4.3142893832       -1.2879554642        2.5877746101
 O         -1.9583675478       -1.3334579952        1.9125670012
 C         -3.8494524428       -1.2416003447        0.0037908436
 C         -3.0097856064       -1.8409619994       -0.9117930239
 C         -3.4952020644       -2.1076415207       -2.1839852286
 C         -4.7998050033       -1.7772278172       -2.5139596313
 C         -5.6321311034       -1.1802331380       -1.5783709708
 C         -5.1545871710       -0.9094655266       -0.3073535855
 H         -5.7686190308       -0.4557137189        0.4525912022
 H         -6.6471550521       -0.9251308066       -1.8371482352
 H         -5.1688848202       -1.9866933985       -3.5057076728
 H         -2.8430017534       -2.5687660054       -2.9088053281
 H         -1.9918425482       -2.0702888803       -0.6357970184
 H         -3.9231067899        1.1393049250        2.5031552667
 H         -2.9030099205        3.2429842111        2.6309210899
 H         -1.0955564361        4.7365892661        1.8666956443
 H          0.4877465325        3.9790758062        0.1337590947
 C          0.5500716655        1.6086670341       -1.1565402985
 H          1.1810886909        2.4703719004       -1.4150042645
 C         -0.1369381183        1.1251820444       -2.4163749240
 C         -0.7233091691        2.1388326349       -3.3514355295
 C          0.5064433034        1.3783445263       -3.7454661682
 H          0.4248474325        0.6191748731       -4.5086212642
 H          1.4506384030        1.9035120543       -3.7530715875
 H         -1.6538165990        1.9042736039       -3.8446283970
 H         -0.6120014358        3.1807677205       -3.0918428316
 H         -0.6648103625        0.1892477344       -2.2949548752
 O          3.0099401123        2.3460416528       -0.0478892152
