  62
        -98.93719461
 C         -2.4240722723       -1.0295205052       -0.0511806306
 C         -3.5376726626       -0.7635200615        0.7792273790
 C         -4.5971384170        0.1019792921        0.2262157747
 C         -4.4433520957        0.5963752523       -1.0164225726
 C         -5.3588207409        1.5217410517       -1.7735423312
 C         -5.2739788047        2.9755565638       -1.2827238064
 C         -5.2786929040        3.1419674531        0.2343941106
 H         -4.4368406135        2.5910658750        0.6576066121
 H         -5.1153270520        4.2006788679        0.4522921597
 C         -6.5682522213        2.7151676398        0.9317012825
 H         -6.4700865538        2.9842291359        1.9865121471
 H         -7.4041360302        3.2855764454        0.5207082471
 C         -6.9096334718        1.2253161560        0.8537160457
 H         -7.3354687769        0.9681942674       -0.1124555938
 H         -7.6884513061        1.0307112588        1.5968522982
 C         -5.7505066493        0.2899031682        1.1823834087
 H         -6.1521952443       -0.7156584575        1.3564795312
 H         -5.3064871993        0.5899983979        2.1383905814
 H         -6.1058897400        3.5337764565       -1.7155516932
 H         -4.3441834431        3.4063931247       -1.6620871274
 H         -5.0413995262        1.4887482235       -2.8181645344
 H         -6.3806218696        1.1570407967       -1.7268057547
 O         -3.3433143812        0.3249228353       -1.7754976542
 C         -2.3152897683       -0.4849087889       -1.3297838831
 O         -1.3926861045       -0.6399100477       -2.1528851834
 O         -3.6498019836       -1.2295733513        1.9453129972
 C         -1.3204958190       -1.9251962985        0.4849735566
 C         -0.0638877136       -1.1095307621        0.6600572858
 C          0.0332826920       -0.2467971238        1.7488405501
 C          1.1593235498        0.5318790272        1.9358279479
 C          2.2109284231        0.4732738823        1.0373072815
 C          2.1214185096       -0.3782408009       -0.0547098044
 C          0.9933824559       -1.1689382547       -0.2336633604
 H          0.9356335666       -1.8193483422       -1.0923192675
 N          3.1790417701       -0.4267602451       -0.9804404779
 S          4.7205073748       -0.7394995660       -0.3962249582
 O          5.4415444775       -1.3183836789       -1.5090212047
 O          4.6760869255       -1.5232740294        0.8168204907
 C          5.3883156757        0.8748629623       -0.0532233243
 C          5.8779470851        1.1640590582        1.2053075262
 C          6.4092432897        2.4218900504        1.4449365531
 C          6.4417955749        3.3625035678        0.4269322688
 C          5.9467385575        3.0557958212       -0.8320076755
 C          5.4155144313        1.7999603296       -1.0784320024
 H          5.0239328086        1.5209688794       -2.0425537334
 H          5.9731426938        3.7901546854       -1.6209433688
 H          6.8554528526        4.3406391485        0.6153673356
 H          6.7946344410        2.6623590675        2.4227693517
 H          5.8269371536        0.4024244322        1.9669610886
 H          2.9785167064       -0.9944733785       -1.7910865419
 H          3.0919409804        1.0792200341        1.1738021581
 H          1.2204894934        1.1923338625        2.7874303385
 H         -0.7916818163       -0.1958316844        2.4460902912
 H         -1.6614855592       -2.2385240748        1.4814275253
 C         -1.1361033666       -3.1578930205       -0.3750110037
 C         -0.3559227472       -4.3192580435        0.1624706874
 C         -1.8418160712       -4.4249799595       -0.0006239908
 H         -2.2308863646       -5.0501384304       -0.7903038700
 H         -2.4562433940       -4.4105582400        0.8875203306
 H          0.2775132415       -4.8743132124       -0.5129762553
 H          0.0421746921       -4.2308365850        1.1621729492
 H         -1.0511358114       -2.9339717159       -1.4319218015
