  62
        -98.93961919
 C         -2.1552420798       -0.7165353304        0.8683072195
 C         -2.9115451397        0.4474855296        1.1619832095
 C         -4.3203205297        0.4359978196        0.7495413695
 C         -4.8176410298       -0.6610623103        0.1505918795
 C         -6.2151580198       -0.7910262303       -0.3803233805
 C         -6.2884127398       -0.3592548902       -1.8517869305
 C         -5.6275238497        0.9903122597       -2.1333044605
 H         -4.5519901197        0.9048456097       -1.9613253405
 H         -5.7667038497        1.2052776298       -3.1950125905
 C         -6.1813497197        2.1543663797       -1.2997263204
 H         -7.1530815997        1.8839473798       -0.8849266504
 H         -6.3368625797        3.0127755898       -1.9566609604
 C         -5.2609868097        2.6204990997       -0.1698692604
 H         -4.2589372797        2.8064866197       -0.5652632404
 H         -5.6438593396        3.5714803297        0.2102529796
 C         -5.1361981697        1.6672060996        1.0254076595
 H         -4.6119970897        2.2014330096        1.8233920196
 H         -6.1305791697        1.3983185297        1.3877910895
 H         -5.7899591098       -1.1175529902       -2.4599036705
 H         -7.3380466398       -0.3212985002       -2.1487062305
 H         -6.8857328597       -0.1818854403        0.2225516895
 H         -6.5181306598       -1.8364083603       -0.3017128106
 O         -4.0748080398       -1.7690258404       -0.0881377806
 C         -2.7237111998       -1.8255072904        0.2390734694
 O         -2.1804485698       -2.8975571204       -0.0805704906
 O         -2.4254352997        1.4526211396        1.7485038895
 C         -0.6925966598       -0.6906336705        1.2704690195
 C          0.1754896903       -0.1607080105        0.1565929895
 C          0.0120541502       -0.5884919404       -1.1577852805
 C          0.8196963102       -0.0925246304       -2.1647274405
 C          1.8216503803        0.8186191095       -1.8779186205
 C          1.9993941303        1.2445112795       -0.5679622605
 C          1.1696319303        0.7655608495        0.4366675795
 H          1.3151810203        1.1213212695        1.4451597695
 N          3.0302767403        2.1454312695       -0.2243878605
 S          4.2581561603        1.5184364094        0.7304542795
 O          3.7050570203        1.0358003094        1.9680039895
 O          5.2502602703        2.5647126394        0.8230576995
 C          4.8955927303        0.1601866594       -0.2355760005
 C          4.2589004002       -1.0630444906       -0.1686076806
 C          4.7012069502       -2.0931964006       -0.9834829206
 C          5.7647641902       -1.8827566906       -1.8477691006
 C          6.3949315702       -0.6485044406       -1.9021119405
 C          5.9543716603        0.3867048394       -1.0933657405
 H          6.4170883303        1.3605025294       -1.0994180405
 H          7.2237746802       -0.4894562706       -2.5729851505
 H          6.1047037102       -2.6869526206       -2.4810717806
 H          4.2100555302       -3.0521675505       -0.9397163706
 H          3.4387186702       -1.1935810306        0.5179683994
 H          3.4376887103        2.6149335695       -1.0218074704
 H          2.4585433603        1.1994730495       -2.6621802505
 H          0.6758282902       -0.4284165704       -3.1803187405
 H         -0.7502858598       -1.3203272904       -1.3786086305
 H         -0.6403504697        0.0382190795        2.0954245395
 C         -0.1859895598       -2.0221695805        1.8097114694
 C          0.8365345602       -2.8541148205        1.1010949994
 C          1.2080184302       -2.1240210106        2.3552940894
 H          1.3663929902       -2.6950304306        3.2579123494
 H          1.8422913102       -1.2517810706        2.2779387394
 H          0.7209706002       -3.9263242205        1.1394857594
 H          1.2200203202       -2.4925270705        0.1596433794
 H         -0.9584963698       -2.5627734705        2.3463792394
