  62
        -98.93719959
 C         -1.5361655868       -1.7708521710        0.1098674532
 C         -1.5233797727       -0.5296895638       -0.5665830264
 C         -2.6661603131        0.3719808810       -0.3107748827
 C         -3.6248712624       -0.0135637203        0.5497221835
 C         -4.8768764899        0.7215036491        0.9547925595
 C         -5.7040751573        1.3216341436       -0.1933895036
 C         -5.6821700612        2.8501412208       -0.2190331616
 H         -6.5702182410        3.2043861033       -0.7473224724
 H         -5.7463100137        3.2173616975        0.8073072695
 C         -4.4619368275        3.4636781859       -0.9026273624
 H         -4.5326008179        3.2978003067       -1.9798923482
 H         -4.5007793206        4.5431607591       -0.7381459801
 C         -3.1042454211        2.9442183113       -0.4223225645
 H         -3.1044385134        2.8136120628        0.6586266688
 H         -2.3630243906        3.7112318295       -0.6552120160
 C         -2.6549651281        1.6473360872       -1.1097023464
 H         -3.2425145369        1.4883908613       -2.0195852180
 H         -1.6158331315        1.7476220348       -1.4380534876
 H         -5.3565957218        0.9238821532       -1.1461202628
 H         -6.7386990543        0.9988268173       -0.0670474596
 H         -5.4746518025       -0.0118715478        1.5003539722
 H         -4.6116856098        1.5029822699        1.6700771353
 O         -3.5658127992       -1.2000254125        1.2207791510
 C         -2.5419823500       -2.1029959233        1.0186934853
 O         -2.6356407058       -3.1491433942        1.6915632693
 H          1.6388981870       -1.6195976067       -1.4735435828
 C          1.8064035080       -1.6568493890       -0.4093356845
 C          0.8604461461       -2.2381366899        0.4194488108
 C          1.0907219175       -2.2462846094        1.7923638380
 C          2.2465651690       -1.7003972869        2.3180354189
 C          3.1893499451       -1.1193094234        1.4873765475
 C          2.9566014589       -1.0855127672        0.1193971280
 N          3.8929090619       -0.4685842166       -0.7328029668
 S          4.3746709514        1.0905317367       -0.3559827452
 O          4.9316443843        1.6204802254       -1.5799860910
 O          5.2647670461        1.0495871288        0.7776293642
 C          2.8792174613        1.9596132411        0.0742464982
 C          2.0871088730        2.4445999174       -0.9467085898
 C          0.8998775762        3.0819064982       -0.6287658655
 C          0.5180062330        3.2065737175        0.6977313135
 C          1.3229415692        2.7113730224        1.7111963657
 C          2.5181449603        2.0838137549        1.4003753813
 H          3.1766104320        1.6993380135        2.1614117606
 H          1.0226337507        2.8108505801        2.7420401293
 H         -0.4124226452        3.6933312901        0.9438636253
 H          0.2760749849        3.4734793926       -1.4164475745
 H          2.4164385399        2.3289677553       -1.9667756076
 H          3.6291305112       -0.5170731879       -1.7068102841
 H          4.0965242862       -0.6873972450        1.8778008582
 H          2.4167043493       -1.7255411306        3.3837738483
 H          0.3448595494       -2.6836247419        2.4419690574
 C         -0.4369761206       -2.7987770921       -0.1071783064
 H         -0.7096538524       -3.6630225714        0.5130208075
 C         -0.3733588807       -3.2409171952       -1.5544253940
 C          0.3789128991       -4.4871192865       -1.9095874729
 C         -1.1181221345       -4.4701699671       -1.9759316943
 H         -1.5922266785       -4.4781758346       -2.9460611754
 H         -1.6710127201       -5.0042968470       -1.2169171025
 H          0.9340289925       -4.5109905081       -2.8349763319
 H          0.8448379280       -5.0336718923       -1.1035735270
 H         -0.3500177755       -2.4157167324       -2.2554232283
 O         -0.6122882290       -0.1798240609       -1.3620780495
