  62
        -98.94324561
 C          2.3604891537        0.5434032833        0.1066209323
 C          3.4237872726        0.4146248151        1.0327092507
 C          4.3746317848       -0.6741849144        0.7734569519
 C          4.1718744182       -1.4862798800       -0.2802560657
 C          5.0805429610       -2.6109384888       -0.6825226972
 C          6.1433940361       -2.1376853496       -1.6838001792
 C          6.8729066975       -0.8649436118       -1.2540235967
 H          7.6194196210       -0.6435871522       -2.0199110206
 H          6.1643858089       -0.0334910416       -1.2462371318
 C          7.5585886866       -0.9581238674        0.1162410672
 H          7.6769142097       -2.0041424379        0.4012388579
 H          8.5595633177       -0.5288322076        0.0365909448
 C          6.8397638160       -0.2057341733        1.2377174468
 H          6.6347642586        0.8191598439        0.9181237471
 H          7.5137083600       -0.1514625879        2.0968451626
 C          5.5265843851       -0.8303158014        1.7260771575
 H          5.2308310908       -0.3089195985        2.6412168885
 H          5.6874610987       -1.8828605327        1.9680032363
 H          5.6551595675       -1.9454418700       -2.6419668093
 H          6.8661153121       -2.9431399304       -1.8263114903
 H          5.5592352374       -3.0190719524        0.2054840389
 H          4.4757354330       -3.3902513788       -1.1491907408
 O          3.1268367411       -1.3454819052       -1.1345145647
 C          2.1995334406       -0.3265195034       -0.9718860070
 O          1.3045204902       -0.3072754982       -1.8375282198
 O          3.5671563106        1.1712934952        2.0305775899
 C          1.3397689668        1.6482700219        0.3195770256
 C         -0.0087543940        1.0242971505        0.5799088077
 C         -0.1754842716        0.2617652184        1.7338665104
 C         -1.3808988830       -0.3547177437        2.0055092573
 C         -2.4466719283       -0.2310752059        1.1301831098
 C         -2.2938709394        0.5310022780       -0.0189500362
 C         -1.0826275505        1.1603866654       -0.2837322058
 H         -0.9789847519        1.7434820037       -1.1852133943
 N         -3.3603991182        0.6456623772       -0.9222030744
 S         -4.9109409943        0.9235507547       -0.3570332905
 O         -5.6115401267        1.5322767673       -1.4667258544
 O         -4.8999914135        1.6692126307        0.8800908305
 C         -5.5702773593       -0.7075576422       -0.0818808296
 C         -5.5141795197       -1.6165673367       -1.1200797375
 C         -6.0348152932       -2.8860334667       -0.9268860591
 C         -6.6027805343       -3.2224518366        0.2929595970
 C         -6.6545359908       -2.2975639483        1.3243757353
 C         -6.1343423653       -1.0262123804        1.1377814479
 H         -6.1481386722       -0.2767803408        1.9132074744
 H         -7.0965776750       -2.5610743204        2.2718354617
 H         -7.0070741679       -4.2114904123        0.4402502689
 H         -5.9952342738       -3.6081470303       -1.7265418468
 H         -5.0665791927       -1.3170082197       -2.0531222022
 H         -3.1539894866        1.1952762158       -1.7428050004
 H         -3.3884000775       -0.7143815356        1.3324561939
 H         -1.4936255841       -0.9422974607        2.9040491420
 H          0.6599085399        0.1576225360        2.4128385122
 H          1.6575809884        2.1650531761        1.2364333752
 C          1.3573659384        2.6367938931       -0.8263690908
 C          0.7928839355        4.0116113659       -0.6318110276
 C          2.2740159726        3.8194800924       -0.7543132139
 H          2.7639930332        4.1476475165       -1.6588017850
 H          2.8796728461        3.9268933860        0.1335890984
 H          0.2660529143        4.4759309074       -1.4519457734
 H          0.3898161728        4.2517512341        0.3405524446
 H          1.2320480678        2.1645697750       -1.7941363411
