  62
        -98.94745729
 C          1.0073600298        1.4967682598        0.4302393102
 C          1.0654001695        0.4093938298       -0.4747781897
 C          1.9781957594       -0.6771468404       -0.0986463097
 C          2.5887586194       -0.6533004304        1.0996758602
 C          3.5046903293       -1.7141009406        1.6479402102
 C          4.9666228893       -1.5671128909        1.2038218701
 C          5.2373905991       -1.9206760310       -0.2589273699
 H          6.3210673391       -1.9776444812       -0.3788774900
 H          4.8332229889       -2.9107480209       -0.4715517298
 C          4.6802038692       -0.9063866310       -1.2673745999
 H          4.4536153995        0.0305684591       -0.7533468599
 H          5.4423262992       -0.6834488911       -2.0174077500
 C          3.4319988491       -1.3755834808       -2.0149419098
 H          3.1077235892       -0.5687697007       -2.6766575098
 H          3.6807665689       -2.2404001208       -2.6335177498
 C          2.2493215491       -1.7486855205       -1.1100329297
 H          2.4386836389       -2.7009080505       -0.6150025396
 H          1.3570407190       -1.8441778803       -1.7322008296
 H          5.2877250195       -0.5409487709        1.3975770400
 H          5.5670022392       -2.2273274610        1.8341447201
 H          3.4629695394       -1.6266797805        2.7360982702
 H          3.1332934291       -2.6998721105        1.3663680003
 O          2.4223555697        0.3632567096        1.9884217202
 C          1.6672820599        1.4767755198        1.6576797402
 O          1.6557859201        2.3693730398        2.5323882601
 O          0.3981384195        0.3488193499       -1.5397286897
 C          0.1786467500        2.7208299300        0.0965164602
 C         -1.2799467300        2.3769199003       -0.0875042497
 C         -2.1219094300        3.1367664904       -0.8926851696
 C         -3.4635010800        2.8177349906       -1.0037797895
 C         -3.9904144802        1.7282443808       -0.3340697894
 C         -3.1546210203        0.9592757707        0.4682082305
 C         -1.8173657502        1.2973197104        0.5983021304
 H         -1.1872539003        0.6991712203        1.2392651804
 N         -3.6486191805       -0.1604606192        1.1579953506
 S         -2.7373716707       -1.5424057294        1.3294580006
 O         -3.6932109009       -2.5367994992        1.7757712208
 O         -1.6220113506       -1.3177991596        2.2170004106
 C         -2.1463529809       -2.0348949996       -0.2828508594
 C         -2.7433743509       -1.5897867595       -1.4439782094
 C         -2.2942109711       -2.0824267797       -2.6593252994
 C         -1.2790618713       -3.0232468899       -2.6950070294
 C         -0.6948155413       -3.4678348099       -1.5193559694
 C         -1.1271137511       -2.9652656598       -0.3032601394
 H         -0.6887435411       -3.2696115098        0.6342598506
 H          0.0957974786       -4.2007765801       -1.5453373094
 H         -0.9356101314       -3.4076749300       -3.6425101894
 H         -2.7415225011       -1.7283655896       -3.5740969693
 H         -3.5342921208       -0.8593825994       -1.4069946893
 H         -4.6192690105       -0.3802198690        0.9876312607
 H         -5.0356226702        1.4741783610       -0.4260755494
 H         -4.1066170799        3.4199653807       -1.6269864295
 H         -1.7248576798        3.9823269503       -1.4301900697
 H          0.2576460102        3.3872201300        0.9693673602
 C          0.7665659101        3.4265761298       -1.1116096799
 C          0.7631617604        4.9221683998       -1.2028850599
 C          2.0454351302        4.1901050096       -0.9486098200
 H          2.7814912502        4.1412041794       -1.7369022700
 H          2.4712979903        4.2321201495        0.0439471000
 H          0.6209818604        5.3793677998       -2.1706196399
 H          0.3299588805        5.4749293199       -0.3827127999
 H          0.6381597799        2.8566077198       -2.0245163898
