  62
        -98.94050546
 C         -2.3053703911        0.7254795432       -0.0098335865
 C         -3.1406746212        0.3272059915       -1.0872997856
 C         -4.0872965877       -0.7584300091       -0.8142403247
 C         -4.1070145036       -1.3319980800        0.4020877625
 C         -4.9969458176       -2.4654757810        0.8346398317
 C         -6.3951817381       -2.0241273074        1.2886272436
 C         -7.3295731949       -1.5679128709        0.1673393313
 H         -7.3588541803       -2.3299787041       -0.6119966146
 H         -8.3322120230       -1.4997407061        0.5940797354
 C         -6.9625864981       -0.2110468556       -0.4498276703
 H         -6.2810773631        0.3206039274        0.2184030850
 H         -7.8617999670        0.4020950280       -0.5426073366
 C         -6.3271780449       -0.2966129636       -1.8376264063
 H         -6.0741335659        0.7160039120       -2.1617413943
 H         -7.0496563530       -0.7066126874       -2.5466826618
 C         -5.0501102624       -1.1450124718       -1.8960018867
 H         -5.2979534841       -2.2037406585       -1.8234169037
 H         -4.5608169613       -0.9635035375       -2.8559135330
 H         -6.8569722958       -2.8758022137        1.7934523489
 H         -6.2873016758       -1.2220766054        2.0226069787
 H         -5.0881099604       -3.1887362848        0.0237563308
 H         -4.4979395977       -2.9483853896        1.6776529395
 O         -3.2742040365       -0.9429892353        1.4021509394
 C         -2.3664596865        0.0974400018        1.2344450292
 O         -1.6944823223        0.3339883491        2.2572160573
 O         -3.0971981568        0.8630836868       -2.2260930026
 C         -1.3530132130        1.8761117643       -0.2833433415
 C          0.0183406816        1.3888307856       -0.6752251861
 C          0.6582497209        1.8855063655       -1.8044178309
 C          1.9313274793        1.4569051750       -2.1385571683
 C          2.5907500223        0.5273659892       -1.3546474169
 C          1.9588729581        0.0228537526       -0.2255144181
 C          0.6822706139        0.4520343609        0.1050568922
 H          0.2014498358        0.0662062330        0.9925215151
 N          2.6269864493       -0.9227359637        0.5797213289
 S          4.0710181088       -0.4021191157        1.2730086101
 O          4.2556252825       -1.2269776353        2.4467272510
 O          4.0639482456        1.0274727572        1.4841282164
 C          5.3023991132       -0.8322192219        0.0610745276
 C          6.1091265433        0.1499041419       -0.4794364216
 C          7.0639697078       -0.2094165173       -1.4181218926
 C          7.1943277348       -1.5368146396       -1.7967762425
 C          6.3781081472       -2.5115729389       -1.2419235937
 C          5.4225822934       -2.1594885606       -0.3021042972
 H          4.7713075213       -2.8847543323        0.1566493776
 H          6.4830796827       -3.5427627246       -1.5384720237
 H          7.9369051450       -1.8137438441       -2.5283562438
 H          7.6999819503        0.5465339915       -1.8498797952
 H          5.9666839947        1.1692466523       -0.1581722634
 H          2.0318023855       -1.3091273693        1.2997763343
 H          3.5821760975        0.1895050964       -1.6085667528
 H          2.4157763497        1.8506869384       -3.0187920227
 H          0.1471170995        2.6064084612       -2.4255499692
 H         -1.7825975586        2.3863017343       -1.1600645028
 C         -1.3070228611        2.8913156161        0.8521966334
 C         -0.1164286089        3.1093225750        1.7329344321
 C         -0.4889800058        4.1410074864        0.7131799951
 H         -0.9092641569        5.0765842674        1.0494316787
 H          0.1431291034        4.2255677784       -0.1578512334
 H         -0.3002087297        3.3153386862        2.7767223835
 H          0.7720156742        2.5196974217        1.5643383441
 H         -2.2748275966        2.9984071481        1.3325667109
