  62
        -98.94292413
 C         -1.9440072916       -0.0805524787       -0.2954485671
 C         -2.8121548845        0.7465954152        0.4587773352
 C         -4.1274633535        0.1706425810        0.7816548984
 C         -4.4196936170       -1.0828149898        0.3931066164
 C         -5.7348833528       -1.7695597307        0.6180560688
 C         -6.6893668609       -1.5422950006       -0.5625911237
 C         -6.8082097353       -0.0786405026       -0.9876540315
 H         -5.8483400455        0.2545125658       -1.3889585772
 H         -7.5305018696       -0.0357219080       -1.8057917810
 C         -7.2471240829        0.8744521097        0.1328150615
 H         -8.0122854183        1.5472321095       -0.2602799747
 H         -7.7021226643        0.3062924551        0.9449458539
 C         -6.1271299039        1.7525835757        0.6938663329
 H         -5.6075796811        2.2519634381       -0.1276746069
 H         -6.5831308263        2.5294382066        1.3132862585
 C         -5.0836951650        1.0327939866        1.5574976144
 H         -4.4708068166        1.7970710188        2.0438237011
 H         -5.5855108153        0.4504774067        2.3327514817
 H         -7.6742133598       -1.9252515374       -0.2889080814
 H         -6.3262698108       -2.1185491405       -1.4168939660
 H         -5.5496561016       -2.8399199006        0.7234865660
 H         -6.1818801956       -1.3960220881        1.5372759555
 O         -3.5502284503       -1.8601553885       -0.3018980232
 C         -2.3082534749       -1.3768356039       -0.6731881064
 O         -1.6250882890       -2.1857550887       -1.3344029343
 H          1.5573785504       -1.3198924628       -0.6593396989
 C          1.4807321669       -0.7161086767        0.2327363626
 C          0.4486555173        0.2014901898        0.3668682273
 C          0.3673722358        0.9514366242        1.5364485188
 C          1.2962423585        0.7775928567        2.5452676468
 C          2.3336749711       -0.1275424029        2.4015342029
 C          2.4254121936       -0.8796140029        1.2373881079
 N          3.4719208736       -1.8055127139        1.0561056449
 S          4.4544528386       -1.6291379997       -0.2884056534
 O          3.7020913431       -1.8858943504       -1.4888737156
 O          5.5865747929       -2.4930143230       -0.0389827103
 C          4.9671095420        0.0785368473       -0.2288852466
 C          4.1442033344        1.0470110764       -0.7684505271
 C          4.5067503252        2.3786346502       -0.6425764547
 C          5.6795882312        2.7171888746        0.0145807797
 C          6.4978939680        1.7323916707        0.5472010756
 C          6.1370501068        0.3997556461        0.4316107202
 H          6.7439742207       -0.3986382123        0.8271717381
 H          7.4111701397        1.9986718351        1.0544895899
 H          5.9570739644        3.7549999081        0.1103268105
 H          3.8682170392        3.1428047497       -1.0556040892
 H          3.2409354741        0.7482139766       -1.2743609316
 H          4.0454361983       -1.9341261693        1.8782678490
 H          3.0622923231       -0.2584734875        3.1874416082
 H          1.2170950605        1.3593048493        3.4509872086
 H         -0.4424874916        1.6546780357        1.6529814073
 C         -0.5589067506        0.3591009962       -0.7469260669
 H         -0.2772590086       -0.3387257680       -1.5477306540
 C         -0.5351207403        1.7659991839       -1.3121668664
 C          0.5111674570        2.1255221285       -2.3217838723
 C         -0.9202481602        1.9820378348       -2.7431136318
 H         -1.4778683738        2.8705457837       -2.9983607716
 H         -1.1961253799        1.1126175314       -3.3230477431
 H          0.9391582513        3.1155516177       -2.2916120453
 H          1.2023159843        1.3530761662       -2.6266300114
 H         -0.8335578491        2.5236269651       -0.6003780487
 O         -2.5288242662        1.9076112321        0.8539480838
