  62
        -98.93540602
 C          2.1411226263        1.3714980428        0.3088035790
 C          1.7603265638        0.3622672308       -0.6059896103
 C          2.5594068369       -0.8840237696       -0.5925075059
 C          3.5857343354       -0.9943119255        0.2700555176
 C          4.5143977685       -2.1615675858        0.4774667390
 C          3.8615596230       -3.3071693176        1.2670206336
 C          2.4428519350       -3.6609551604        0.8284449670
 H          2.0565006241       -4.4104646923        1.5245296179
 H          1.8083115420       -2.7774357723        0.9233000886
 C          2.3208009198       -4.2273305728       -0.5844286015
 H          1.2789606847       -4.5283817713       -0.7227394150
 H          2.9377246021       -5.1250742621       -0.6634778613
 C          2.6955596365       -3.2747514736       -1.7224152717
 H          2.3187940484       -3.7149016027       -2.6501437879
 H          3.7737476646       -3.1984060525       -1.8339375608
 C          2.0758223418       -1.8853995128       -1.6140070030
 H          2.1694333227       -1.3833889971       -2.5842896135
 H          0.9982801774       -1.9907324371       -1.4436904654
 H          3.8220734133       -3.0138424890        2.3192120479
 H          4.4998615399       -4.1887282995        1.1877450479
 H          5.3648829417       -1.7860029018        1.0509876146
 H          4.8904149231       -2.5155276160       -0.4777615872
 O          3.9014021641       -0.0013871584        1.1514698825
 C          3.1905584659        1.1816554973        1.2096186406
 O          3.5755106749        1.9709325236        2.0960442918
 O          0.7934319870        0.4680990353       -1.4021620303
 C          1.3883294107        2.6865738988        0.4084560911
 C         -0.1030997901        2.4485041728        0.3724919813
 C         -0.9809105138        3.1691670707       -0.4267429674
 C         -2.3409215943        2.9122292714       -0.3866065666
 C         -2.8546552313        1.9242856317        0.4319678313
 C         -1.9821306141        1.1805926461        1.2172138966
 C         -0.6253214369        1.4611468065        1.1994678424
 H          0.0482309082        0.8857984258        1.8239158385
 N         -2.4816638152        0.1421580157        2.0189115907
 S         -3.7046848408       -0.8252186085        1.4143142120
 O         -4.9792571029       -0.2019689284        1.6769574681
 O         -3.5023685299       -2.1148703299        2.0395057806
 C         -3.4599313547       -0.9432802170       -0.3502967166
 C         -2.2106808957       -1.2664904280       -0.8402099137
 C         -2.0307556852       -1.3520340726       -2.2107834049
 C         -3.0993280875       -1.1256927956       -3.0640875633
 C         -4.3511077232       -0.8139551306       -2.5570788566
 C         -4.5344581622       -0.7175010916       -1.1873642322
 H         -5.4861767740       -0.4640352114       -0.7488713373
 H         -5.1809424782       -0.6392623019       -3.2228060734
 H         -2.9514460239       -1.1904470556       -4.1304749804
 H         -1.0516299398       -1.5717173415       -2.6043478451
 H         -1.3894018816       -1.4300916251       -0.1601522542
 H         -1.7700358458       -0.4082641167        2.4755637629
 H         -3.9115235702        1.7157372579        0.4762447272
 H         -3.0106460405        3.4857712536       -1.0087869274
 H         -0.6024692229        3.9246188483       -1.0947019599
 H          1.6351061807        3.0764146098        1.4107689575
 C          1.8522098224        3.7388074724       -0.5897385256
 C          3.2029561773        3.6602763542       -1.2349934890
 C          1.9681577402        3.4410316123       -2.0535569613
 H          1.6798197590        4.2066711983       -2.7587805534
 H          1.7331022245        2.4384221327       -2.3731175522
 H          3.7570896881        4.5773578746       -1.3693447166
 H          3.8249156993        2.8079044743       -1.0021399127
 H          1.5151465450        4.7341340458       -0.3176912651
