  62
        -98.94478875
 C         -2.0397899291        1.3282890490       -0.0113030313
 C         -2.6434833025        0.6763015868       -1.1126655223
 C         -3.8418695985       -0.1183144547       -0.8139401076
 C         -4.2830098482       -0.1897218057        0.4555215076
 C         -5.4612468909       -1.0014561725        0.9086621620
 C         -5.0331849435       -2.4119317115        1.3372413061
 C         -4.1366834627       -3.1200632652        0.3214455874
 H         -3.1829255679       -2.5904242474        0.2584968386
 H         -3.9230274698       -4.1165202628        0.7144105127
 C         -4.7436904394       -3.2432882867       -1.0833452566
 H         -5.8225291840       -3.0915757124       -1.0349938020
 H         -4.5752784584       -4.2583836354       -1.4492759697
 C         -4.1444754770       -2.2908648719       -2.1198440633
 H         -4.4828634805       -2.6097453075       -3.1093068128
 H         -3.0545372088       -2.3741033353       -2.1058086013
 C         -4.5186687435       -0.8113614749       -1.9632363718
 H         -4.1880605580       -0.2884962083       -2.8655102544
 H         -5.6033750345       -0.7131309831       -1.8878155014
 H         -4.4874524739       -2.3369826636        2.2807128127
 H         -5.9308981565       -3.0081178545        1.5103767669
 H         -5.9187271039       -0.4962292690        1.7608800648
 H         -6.1879155162       -1.0605246018        0.1006971896
 O         -3.6688247431        0.4379928844        1.4898388111
 C         -2.5260916906        1.2003146793        1.2901113742
 O         -2.0557762659        1.7001157470        2.3283610228
 O         -2.1969879569        0.7509757168       -2.2900412637
 C         -0.7960936439        2.1668231728       -0.2491270318
 C          0.3766616950        1.5505637460        0.4732289993
 C          1.1958463480        2.2463962691        1.3512630500
 C          2.2429825948        1.6039064795        1.9908676450
 C          2.5037835193        0.2663602007        1.7607189230
 C          1.7040144302       -0.4337364019        0.8649042453
 C          0.6558064591        0.2107757330        0.2275649990
 H          0.0305215953       -0.3366183645       -0.4670867346
 N          1.9752228443       -1.7870792987        0.6039763143
 S          3.5708171794       -2.2381457170        0.3751442259
 O          3.5154634605       -3.3961628839       -0.4895631170
 O          4.2062561788       -2.4399890990        1.6535070091
 C          4.3365355890       -0.8634817996       -0.4665585427
 C          5.4101400327       -0.2158441806        0.1097083856
 C          5.9726900236        0.8660144950       -0.5486935777
 C          5.4516397113        1.2814333800       -1.7639903808
 C          4.3749629260        0.6176422717       -2.3323240247
 C          3.8102643825       -0.4659852402       -1.6797844367
 H          2.9749605916       -1.0045056998       -2.0985405686
 H          3.9702792583        0.9415317734       -3.2778656051
 H          5.8861722158        2.1270062766       -2.2732911757
 H          6.8110462954        1.3827886841       -0.1102419961
 H          5.7805708700       -0.5700153795        1.0579389068
 H          1.3711904719       -2.2029703211       -0.0890915302
 H          3.3033990005       -0.2507444873        2.2658199929
 H          2.8630342291        2.1532131936        2.6824852864
 H          1.0079826096        3.2888453664        1.5466677271
 H         -0.6030061059        2.0967878400       -1.3298993154
 C         -1.0456357091        3.6163630899        0.1064709867
 C         -0.2505232476        4.6989445671       -0.5582426401
 C         -1.6950234145        4.5081885860       -0.9075655136
 H         -2.4119210221        5.2397799450       -0.5661812565
 H         -1.9389046988        4.0749975831       -1.8667358441
 H          0.0246506623        5.5668627805        0.0214833648
 H          0.4896789078        4.3999396035       -1.2846060029
 H         -1.3308335542        3.7497497974        1.1436303746
