  62
        -98.94184053
 C         -2.7821205863       -0.3626222039       -0.2429200660
 C         -2.0853156258        0.4900728810       -1.1335110115
 C         -2.1473871050        1.9278181239       -0.8319982083
 C         -2.8610544205        2.3577068398        0.2228491769
 C         -2.9726788744        3.7872985513        0.6648852575
 C         -1.9006867495        4.1400601751        1.7049482120
 C         -0.4827596502        3.7292707466        1.3060100552
 H          0.1892943144        4.0792110105        2.0931866363
 H         -0.4058620265        2.6387048657        1.2918462749
 C         -0.0134800574        4.2810882074       -0.0470873704
 H         -0.6340460852        5.1294478652       -0.3396315644
 H          1.0091772384        4.6471456557        0.0648129743
 C          0.0034155188        3.2455301694       -1.1732123127
 H          0.5093838976        2.3426541358       -0.8190382029
 H          0.5866928551        3.6531901524       -2.0036800353
 C         -1.3714004761        2.8502209029       -1.7290610010
 H         -1.9498406464        3.7481929956       -1.9559647513
 H         -1.2114046989        2.2992585633       -2.6603719435
 H         -1.9318893234        5.2176861771        1.8775545258
 H         -2.1488264320        3.6380877140        2.6431188481
 H         -2.8796764972        4.4377017115       -0.2026680900
 H         -3.9581270426        3.9306997278        1.1117532133
 O         -3.5471731494        1.5157861187        1.0372475706
 C         -3.4978304883        0.1472702827        0.8455097750
 O         -4.1392110891       -0.5082527733        1.6917848924
 H         -0.2295390204       -1.3981987157       -1.1566244984
 C         -0.2488642030       -2.0018485048       -0.2613470855
 C         -1.4696360282       -2.3782813585        0.2803237695
 C         -1.4697845987       -3.1400624745        1.4426051495
 C         -0.2791663687       -3.4979885365        2.0525624532
 C          0.9342562146       -3.0872251080        1.5288439861
 C          0.9408027650       -2.3296897039        0.3664773096
 N          2.1738827234       -1.8320911345       -0.1393583064
 S          2.6543325922       -0.4774801685        0.7643076102
 O          2.9359749959       -0.9205377592        2.1065964468
 O          1.6794397205        0.5840756103        0.6364091271
 C          4.1718628733       -0.0314309875       -0.0569202463
 C          5.2945027376       -0.8022155816        0.1771213140
 C          6.4719719925       -0.4859298574       -0.4808977456
 C          6.5062467778        0.5888928480       -1.3572436496
 C          5.3709036795        1.3524792569       -1.5817669458
 C          4.1888703158        1.0400711272       -0.9281285437
 H          3.2828758118        1.6084143610       -1.0689031253
 H          5.4000233951        2.1882943592       -2.2622114072
 H          7.4240420519        0.8343370036       -1.8678666420
 H          7.3573531100       -1.0763957583       -0.3088257338
 H          5.2206631730       -1.6219523713        0.8720605488
 H          2.0504022802       -1.5143678967       -1.0945690198
 H          1.8659259149       -3.3173741014        2.0188707311
 H         -0.2974916779       -4.0865203096        2.9574614875
 H         -2.4133443414       -3.4261526128        1.8847943944
 C         -2.7548039880       -1.8831753727       -0.3393329899
 H         -3.5878030049       -2.2375410916        0.2823175273
 C         -2.9463848142       -2.4124177980       -1.7460233408
 C         -3.4328836976       -3.8173264179       -1.9298764797
 C         -4.3344301425       -2.6636454019       -2.2494838666
 H         -4.5527224404       -2.4470104749       -3.2842794935
 H         -5.1544491861       -2.4546842310       -1.5776833793
 H         -3.6441988754       -4.3934574273       -1.0417184017
 H         -3.0314578205       -4.3978596041       -2.7460874203
 H         -2.2241609933       -2.0306098541       -2.4547556819
 O         -1.4352380640        0.0985703108       -2.1411063383
