  62
        -98.93909792
 C         -0.7950381796       -1.2243572200        0.2275862011
 C         -1.6055233397       -0.5972977797        1.2042052109
 C         -2.5583200400        0.4219010098        0.7280460804
 C         -2.5866351902        0.7331632791       -0.5808925597
 C         -3.4766930306        1.6733226385       -1.3679762601
 C         -4.6986638507        2.3179845585       -0.7190429503
 C         -5.8460984604        1.3522581283       -0.4216867997
 H         -6.6100222205        1.8896614584        0.1442614701
 H         -6.2919877504        1.0429123177       -1.3703305895
 C         -5.4641149600        0.0850344688        0.3391319809
 H         -4.7548129399       -0.4988016013       -0.2511228089
 H         -6.3659444798       -0.5229782014        0.4515937513
 C         -4.8812798599        0.3114565997        1.7323937107
 H         -5.5702337900        0.9148455598        2.3268827905
 H         -4.7902714796       -0.6649101100        2.2167399812
 C         -3.4942135001        0.9746955901        1.7644033402
 H         -3.5722146704        2.0557724900        1.6782509597
 H         -3.0387094799        0.7562444907        2.7350894103
 H         -5.0730792410        3.0617243080       -1.4276549107
 H         -4.4096859507        2.8576422490        0.1780407294
 H         -2.8230256608        2.4682120185       -1.7390676006
 H         -3.7990148505        1.1074242479       -2.2480956798
 O         -1.6952515102        0.1939098489       -1.4613903895
 C         -0.7799571299       -0.7819180206       -1.0948035391
 O         -0.0396809999       -1.1488980309       -2.0237837590
 H          1.8044637003       -0.4275778487        1.2691666205
 C          2.2328117604       -1.1123306290        0.5509162908
 C          1.4903757706       -2.2058747994        0.1223278514
 C          2.0632224808       -3.0859351997       -0.7864141582
 C          3.3457188407       -2.8671718496       -1.2566253884
 C          4.0777062004       -1.7716444692       -0.8382456991
 C          3.5134100203       -0.8862590889        0.0735705905
 N          4.2348520300        0.2280232916        0.5247979299
 S          3.4557194897        1.6066053316        1.0306166193
 O          4.4635414994        2.6415943418        0.9259359086
 O          2.9010261999        1.4147032221        2.3477681494
 C          2.1531756695        1.9456654806       -0.1405233708
 C          0.9564884094        2.4417502306        0.3339259291
 C         -0.0271747908        2.8052921198       -0.5706351210
 C          0.1962115491        2.6509501192       -1.9295096810
 C          1.3962754892        2.1346035893       -2.3904525408
 C          2.3901024094        1.7870196600       -1.4909127207
 H          3.3345301895        1.3934607301       -1.8295238506
 H          1.5589208591        2.0000350488       -3.4474821208
 H         -0.5696841210        2.9272620186       -2.6370983310
 H         -0.9624040909        3.2008288698       -0.2067365111
 H          0.8143878695        2.5286034211        1.3999805990
 H          5.0950818099        0.4220755415        0.0348883697
 H          5.0758135403       -1.5985899191       -1.2104454993
 H          3.7785313408       -3.5549162098       -1.9670482781
 H          1.4968056910       -3.9293683400       -1.1447404877
 C          0.0990489907       -2.3650418395        0.6763355816
 H          0.1602830808       -2.2521624289        1.7719964716
 C         -0.4961086989       -3.7415324298        0.4123555424
 C         -1.9789514189       -3.9571453502        0.4415945826
 C         -1.2311374390       -4.0702239206       -0.8512432574
 H         -1.0984004387       -5.0525144208       -1.2805509569
 H         -1.3445063592       -3.2858996210       -1.5833554078
 H         -2.6071381291       -3.0919555703        0.5968136622
 H         -2.3579648786       -4.8581647901        0.9001342731
 H          0.1111761613       -4.5321029494        0.8426042827
 O         -1.5494174295       -0.8860283390        2.4303380610
