  62
        -98.94425226
 C         -1.9736481194       -1.1660863124       -0.1834551207
 C         -2.3892401500        0.0214985985       -0.8324033748
 C         -3.8362401499        0.2850146339       -0.8163413152
 C         -4.6618085611       -0.5926672547       -0.2178700717
 C         -6.1461687191       -0.4184945340       -0.0815697223
 C         -6.5028174463        0.3015855304        1.2265183232
 C         -5.6945623575        1.5759738886        1.4709659528
 H         -6.0520784633        2.0135243025        2.4055703153
 H         -4.6453525532        1.3108749952        1.6207394249
 C         -5.7963036395        2.6173382590        0.3477821095
 H         -6.6665699719        2.4072478673       -0.2750703690
 H         -5.9480207593        3.6018774350        0.7952229712
 C         -4.5529350740        2.7179144165       -0.5379152589
 H         -4.6433837619        3.6189492486       -1.1506865128
 H         -3.6641337258        2.8364144103        0.0873893557
 C         -4.3159529741        1.5393986006       -1.4906317245
 H         -3.5204318402        1.8285615695       -2.1839716850
 H         -5.2216377747        1.3451993537       -2.0689962552
 H         -7.5674271313        0.5416445756        1.2088723894
 H         -6.3222759611       -0.3828886629        2.0585047393
 H         -6.6098748401       -1.4063312337       -0.0803601024
 H         -6.5198326308        0.1463580271       -0.9333719762
 O         -4.2253592940       -1.7291765872        0.3826795235
 C         -2.8762000303       -2.0386212756        0.4254214939
 O         -2.6099734602       -3.0994618357        1.0255868824
 O         -1.6001234202        0.8224762894       -1.3982697117
 C         -0.4995098805       -1.5327595387       -0.1292478552
 C          0.2546747971       -0.4407649402        0.5889863303
 C         -0.0774929573       -0.1760794509        1.9163191802
 C          0.5504760159        0.8366624611        2.6134435701
 C          1.5295227610        1.6027808792        2.0040748696
 C          1.8690493141        1.3478756204        0.6811523016
 C          1.2375916981        0.3246641417       -0.0160768031
 H          1.5037545143        0.1662613764       -1.0468101113
 N          2.8365109304        2.1333628842        0.0371813009
 S          3.9948074905        1.4691381609       -0.9641116193
 O          4.9494736751        2.5371059498       -1.1627795794
 O          3.3896916604        0.9231601096       -2.1511275355
 C          4.7392611856        0.1722644999        0.0076921697
 C          5.7544332349        0.5087877417        0.8823249203
 C          6.3070802892       -0.4786788452        1.6811962236
 C          5.8313421549       -1.7787571202        1.5987807939
 C          4.8110985729       -2.0997869794        0.7169550189
 C          4.2565137007       -1.1170695078       -0.0881517129
 H          3.4663853868       -1.3320792016       -0.7880713907
 H          4.4435475560       -3.1114808802        0.6513123530
 H          6.2597884853       -2.5474891968        2.2223669935
 H          7.1039969731       -0.2330048311        2.3644697241
 H          6.1022028279        1.5288262558        0.9060518754
 H          3.2333080204        2.8632308364        0.6102540727
 H          2.0155261983        2.4015125099        2.5435318150
 H          0.2785415306        1.0326661604        3.6397084070
 H         -0.8472194873       -0.7728852415        2.3873457420
 H         -0.4397903470       -2.4468053483        0.4787324275
 C          0.0205774221       -1.8393084556       -1.5170717314
 C          1.1872986255       -2.7626795183       -1.6917678748
 C         -0.1889613133       -3.2114185102       -2.0805410637
 H         -0.4258874050       -3.3071640162       -3.1295521384
 H         -0.6887479221       -3.9344583842       -1.4521463029
 H          1.8984646995       -2.5508379430       -2.4768037180
 H          1.6201497963       -3.1921441607       -0.8006206606
 H         -0.0759697706       -1.0039730116       -2.2010964861
