  62
        -98.94716854
 C         -1.6012077113       -1.5658642352       -0.2411927665
 C         -2.7599574482       -1.2249580287        0.5034534551
 C         -3.5488307452       -0.1004193670       -0.0093460660
 C         -3.1608243036        0.5287909440       -1.1332479428
 C         -3.8743626387        1.6748621561       -1.7983317041
 C         -3.5362297908        3.0544608155       -1.2165557732
 C         -4.1099103499        3.3349084531        0.1726690059
 H         -3.9708417150        4.4002365647        0.3673387381
 H         -5.1836977469        3.1450895998        0.1655730660
 C         -3.4512653297        2.5336841035        1.3047118044
 H         -2.4987518745        2.1245485567        0.9600194408
 H         -3.2304765185        3.1992259619        2.1420626393
 C         -4.3088146614        1.3915782491        1.8501058352
 H         -5.2100889638        1.7975890700        2.3148176923
 H         -3.7364090668        0.8720434402        2.6226903558
 C         -4.7268896168        0.3582433036        0.7953691730
 H         -5.1383431061       -0.5127396252        1.3112286682
 H         -5.4957957719        0.7738312238        0.1443554074
 H         -3.9317915535        3.8029224763       -1.9071542601
 H         -2.4507173654        3.1685807739       -1.1913225539
 H         -4.9513208496        1.5121803457       -1.7457097043
 H         -3.5736374676        1.6615785992       -2.8484326019
 O         -2.0519565453        0.1623795723       -1.8276405076
 C         -1.2321378494       -0.8710184459       -1.3926263927
 O         -0.2388386967       -1.0596038264       -2.1211243657
 O         -3.1181089371       -1.8359283153        1.5443080963
 C         -0.7209253032       -2.6843339974        0.2950557914
 C          0.5314713727       -2.0397773427        0.8341207777
 C          0.5366854225       -1.5240323267        2.1273301832
 C          1.6326467265       -0.8322355367        2.6089123560
 C          2.7363145999       -0.6162616667        1.8018111667
 C          2.7324415009       -1.1149549219        0.5061400635
 C          1.6486728838       -1.8436774768        0.0368864676
 H          1.6582864155       -2.2148128183       -0.9754038442
 N          3.8204646555       -0.8360599169       -0.3432342444
 S          4.2858346950        0.7722665310       -0.4135309549
 O          4.7962106284        0.9719136500       -1.7521200270
 O          5.2200031370        1.0425700747        0.6523411803
 C          2.8007299639        1.7318088208       -0.1551845261
 C          1.7122335571        1.5094709925       -0.9745320601
 C          0.5582097101        2.2476112976       -0.7681673242
 C          0.5090217111        3.1911506370        0.2457857042
 C          1.6126831390        3.4060065885        1.0567678842
 C          2.7692330929        2.6701311631        0.8570040260
 H          3.6474788952        2.8001955495        1.4683419976
 H          1.5724834370        4.1407158975        1.8446451979
 H         -0.3938747602        3.7603647927        0.4056793651
 H         -0.2965329883        2.0634748333       -1.4006900985
 H          1.7514384079        0.7628571677       -1.7521658498
 H          3.6997970344       -1.2071389039       -1.2751382222
 H          3.5931178145       -0.0617455595        2.1493072727
 H          1.6245978056       -0.4454562471        3.6164073334
 H         -0.3395785178       -1.6588644733        2.7455116106
 H         -1.2777363684       -3.1140924040        1.1380370286
 C         -0.4662756656       -3.7725242183       -0.7256070457
 C          0.1035892357       -5.0813858690       -0.2692711674
 C         -1.3244325077       -5.0005514438       -0.7157511545
 H         -1.5962614469       -5.4458634415       -1.6611185462
 H         -2.0989746874       -5.0641153966        0.0343708065
 H          0.8145618193       -5.5856123090       -0.9058245836
 H          0.2992807959       -5.1974054543        0.7859972542
 H         -0.1591753467       -3.3972963685       -1.6938420181
