  62
        -98.94474353
 C          1.9859729124        1.3442530296        0.3307427462
 C          2.6815309773        0.8155382994       -0.7837910930
 C          3.8698554692        0.0121702848       -0.4679743804
 C          4.2294155376       -0.1800267980        0.8140807028
 C          5.4309083327       -0.9498095568        1.2917188152
 C          5.2059688323       -2.4650056356        1.3881570053
 C          5.1253017896       -3.1975657752        0.0482065192
 H          5.9931004457       -2.9385407902       -0.5590706001
 H          5.1854842696       -4.2663840542        0.2630224893
 C          3.8395866442       -2.9258585209       -0.7457324639
 H          3.4355781804       -3.8691985691       -1.1203229592
 H          3.0838171906       -2.4983222998       -0.0823305998
 C          4.0204318849       -2.0008739546       -1.9494672006
 H          3.0417709400       -1.8452298753       -2.4111296735
 H          4.6680226191       -2.4815198158       -2.6861061395
 C          4.6071233689       -0.6253190288       -1.6064981995
 H          4.4936968461        0.0217481878       -2.4796506993
 H          5.6676060626       -0.7159023973       -1.3723575833
 H          4.2919537370       -2.6476541082        1.9582342715
 H          6.0402288877       -2.8827246770        1.9564256961
 H          6.2787718967       -0.7480943421        0.6366192599
 H          5.6648956312       -0.5728963710        2.2897470999
 O          3.5251283661        0.3355653218        1.8572029775
 C          2.3794607146        1.0855693678        1.6431408235
 O          1.8056705576        1.4569383424        2.6883324095
 O          2.3363092531        1.0051541447       -1.9780512817
 C          0.7399314374        2.1866978784        0.1197248439
 C         -0.3180624573        1.3597955913       -0.5705411927
 C         -0.9815066030        1.7588365294       -1.7223027959
 C         -1.9327005229        0.9365919939       -2.3033832006
 C         -2.2519770121       -0.2865733068       -1.7448864122
 C         -1.6103220786       -0.6847501146       -0.5778983557
 C         -0.6565809858        0.1378985464       -0.0001670048
 H         -0.1539537346       -0.1742517985        0.9075988237
 N         -1.9509066452       -1.9126606981        0.0149508495
 S         -3.5793405776       -2.2781001070        0.1529637604
 O         -3.6798834235       -3.1310821618        1.3166016923
 O         -4.0538381596       -2.8466620243       -1.0840514250
 C         -4.3899792574       -0.7153125338        0.4458356487
 C         -4.0152514787        0.0159033591        1.5557083335
 C         -4.6097810315        1.2469722387        1.7791520223
 C         -5.5648566032        1.7233236223        0.8938556052
 C         -5.9352280383        0.9742648895       -0.2119165462
 C         -5.3417866976       -0.2566633250       -0.4418522808
 H         -5.5963811982       -0.8697768544       -1.2909348627
 H         -6.6797603567        1.3461144035       -0.8970960499
 H         -6.0224009845        2.6841045671        1.0692110846
 H         -4.3220030450        1.8302001074        2.6392758112
 H         -3.2719950269       -0.3820813982        2.2283900074
 H         -1.4574393140       -2.1052856143        0.8738738595
 H         -2.9784475913       -0.9440040303       -2.1943360450
 H         -2.4304931184        1.2526008748       -3.2071767321
 H         -0.7463340577        2.7080100265       -2.1738814962
 H          0.3702263932        2.4358788464        1.1250228581
 C          1.0843683716        3.4706607417       -0.6041976124
 C          0.2350921692        4.6902597191       -0.4138637332
 C          1.6051735190        4.6293605431        0.1899054278
 H          2.3878555847        5.2375664389       -0.2381012115
 H          1.6907042789        4.4999332342        1.2593231142
 H          0.0774784112        5.3460004710       -1.2566517573
 H         -0.6134667210        4.6098857012        0.2483536286
 H          1.5238413897        3.2960145170       -1.5791014509
