  62
        -98.93897084
 C         -2.4138141605       -0.4176746545        0.1620174991
 C         -2.1519542917        0.5150815648        1.1975337819
 C         -2.0392922047        1.9313102802        0.8205201673
 C         -2.1704624622        2.2773493642       -0.4732428020
 C         -2.1092951655        3.6300354786       -1.1506464623
 C         -1.4951974446        4.8308835194       -0.4354305497
 C          0.0045770318        4.7185462035       -0.1644961345
 H          0.3112085729        5.5960452103        0.4098479329
 H          0.5343125342        4.7424324212       -1.1204941205
 C          0.4552908587        3.4600459083        0.5744397269
 H          1.5372309154        3.5322995432        0.7222581484
 H          0.2850677824        2.5821692498       -0.0543895796
 C         -0.1880469279        3.2416790541        1.9433329041
 H         -0.0489238734        4.1325700097        2.5590444739
 H          0.3405720029        2.4146383170        2.4244640644
 C         -1.6847453385        2.8835260081        1.9258566675
 H         -2.3066298881        3.7741849672        1.8767873072
 H         -1.9197019021        2.3678902061        2.8615827655
 H         -2.0323898320        5.0373660640        0.4856103458
 H         -1.6469940325        5.6924436067       -1.0916795422
 H         -3.1408403667        3.8790540976       -1.4248313106
 H         -1.5707921609        3.4600749263       -2.0888079390
 O         -2.4556903223        1.3528181312       -1.4320708367
 C         -2.5233078187       -0.0039273180       -1.1640885080
 O         -2.6970743124       -0.6990547013       -2.1878727396
 O         -2.0144807610        0.1702004795        2.4023134413
 C         -2.3832340608       -1.8833483046        0.5711152354
 C         -0.9351451561       -2.3122763544        0.5383974326
 C         -0.2818622370       -2.7923417526        1.6664174539
 C          1.0813254772       -3.0357962497        1.6436135309
 C          1.8242694506       -2.7659694110        0.5075166532
 C          1.1746725412       -2.2964850621       -0.6258601799
 C         -0.1959581868       -2.1096964077       -0.6189767149
 H         -0.6838591276       -1.7331233768       -1.5067195899
 N          1.9526076761       -1.8871175815       -1.7498170478
 S          2.2159933190       -0.2164854750       -1.6520392249
 O          0.9847844843        0.5105792083       -1.4293389086
 O          2.9476776933        0.1394818938       -2.8489833838
 C          3.2651976513       -0.0958153410       -0.2233776455
 C          2.7029754951        0.2268005342        0.9957741098
 C          3.5175568712        0.2680682228        2.1162554495
 C          4.8695214015       -0.0169530442        1.9977554912
 C          5.4179243995       -0.3400066050        0.7653518020
 C          4.6092627476       -0.3830364425       -0.3591034761
 H          4.9876622416       -0.6263742668       -1.3380992248
 H          6.4696410805       -0.5603882746        0.6784531774
 H          5.4986644179        0.0133094271        2.8732753069
 H          3.0902038169        0.5164717453        3.0745106928
 H          1.6450503875        0.4362645135        1.0436444414
 H          1.4802738494       -2.0667942950       -2.6272235113
 H          2.8930916693       -2.9034777202        0.4895343797
 H          1.5747587669       -3.4062419948        2.5286025606
 H         -0.8444918897       -2.9418556573        2.5758057903
 H         -2.7181639842       -1.9095984000        1.6170137251
 C         -3.2647703420       -2.8053918044       -0.2415130727
 C         -3.6956172004       -4.1086951706        0.3603180475
 C         -4.6919045591       -3.0060550586        0.1674492029
 H         -5.4365675423       -3.1072894923       -0.6074128584
 H         -5.0409477025       -2.4742324340        1.0404183874
 H         -3.7565275306       -4.9746421125       -0.2805279331
 H         -3.3719991396       -4.3269163854        1.3665810794
 H         -3.0532261470       -2.7844344059       -1.3023499573
