  62
        -98.93902581
 C          1.5056418494        0.9501368921       -0.3705004464
 C          2.8121115215        1.4835896734       -0.3097630510
 C          3.9177944133        0.5264920267       -0.4931265532
 C          3.6300281977       -0.7683014691       -0.7133894690
 C          4.6001302833       -1.9049696004       -0.8823691236
 C          4.8527138843       -2.6088428588        0.4615464047
 C          5.9702506718       -1.9990215863        1.3068339878
 H          5.9552109201       -2.5006963561        2.2771990828
 H          6.9333153700       -2.2176985793        0.8406715777
 C          5.8690713037       -0.4882230646        1.5332439578
 H          4.8350326437       -0.2180616882        1.7549767897
 H          6.4633361395       -0.2410686142        2.4151976909
 C          6.3811542806        0.3367519790        0.3429690322
 H          6.9229821991       -0.3193410592       -0.3380603292
 H          7.1023576892        1.0754345077        0.6990725983
 C          5.3034923900        1.1092802488       -0.4327735941
 H          5.1681192492        2.0972338324        0.0189873157
 H          5.6551329652        1.2815398551       -1.4556260682
 H          3.9165878233       -2.5987584593        1.0255911437
 H          5.1069928863       -3.6529950787        0.2685354649
 H          4.1291577903       -2.6162324379       -1.5639170519
 H          5.5286575626       -1.5576954039       -1.3255201315
 O          2.3540821754       -1.2405969033       -0.7614180305
 C          1.2623204372       -0.4068382108       -0.5842188740
 O          0.1599491456       -0.9791694078       -0.6392269590
 H         -2.4087762336        1.3766109502       -0.1658172500
 C         -1.9208202788        1.1709011868        0.7710500220
 C         -0.5611178045        1.3866190195        0.9242426179
 C          0.0170344140        1.1393103121        2.1674314635
 C         -0.7436934951        0.6719385913        3.2205496750
 C         -2.0969413100        0.4310474755        3.0557865620
 C         -2.6856919385        0.6856955955        1.8238885881
 N         -4.0570507716        0.4730675058        1.6325003783
 S         -4.6597224735        0.0040539376        0.1487444586
 O         -4.6909985418        1.1290215528       -0.7526365600
 O         -5.9482306874       -0.5770972277        0.4642979500
 C         -3.5714889345       -1.2617353026       -0.4767464374
 C         -3.0451164354       -1.1407752538       -1.7452177190
 C         -2.2298977191       -2.1482353847       -2.2323875138
 C         -1.9527019159       -3.2520977503       -1.4438335144
 C         -2.4886261477       -3.3592643337       -0.1707041959
 C         -3.3087267590       -2.3575809218        0.3197096536
 H         -3.7448673597       -2.4178592932        1.3039063301
 H         -2.2638159089       -4.2175184528        0.4423927363
 H         -1.3071170044       -4.0292419391       -1.8214904330
 H         -1.8038302629       -2.0634995233       -3.2195390122
 H         -3.2781599354       -0.2602775615       -2.3235618871
 H         -4.5343467084        0.0191732469        2.3967144198
 H         -2.6919432614        0.0552643607        3.8739917632
 H         -0.2799184005        0.4841230399        4.1772972704
 H          1.0766734578        1.3158150684        2.2933632244
 C          0.3147556464        1.8753540711       -0.2016631562
 H          0.7340562916        2.8521294355        0.0815587444
 C         -0.4213292436        2.0221481890       -1.5166267162
 C         -1.2290462998        3.2529870563       -1.7965553997
 C          0.0619723475        3.0221366352       -2.5218034065
 H          0.0278822960        2.7598845249       -3.5686183628
 H          0.9163166041        3.6250753260       -2.2506191816
 H         -1.2530719838        4.0175260971       -1.0346139247
 H         -2.1571954646        3.1495305704       -2.3389750096
 H         -0.7895571380        1.0734276998       -1.8926294276
 O          3.0480168408        2.7052216711       -0.1008916460
