  62
        -98.94634458
 C         -1.7722777995       -0.7349020607        0.2482321800
 C         -3.0578480194       -0.9237049911        0.8101027398
 C         -3.9603846096        0.2308045189        0.7402452205
 C         -3.5319940997        1.3806750592        0.1879994911
 C         -4.3292728298        2.6499987792        0.0571647018
 C         -5.2498592898        2.6833755698       -1.1706462382
 C         -6.4859322497        1.7873577396       -1.0821818287
 H         -7.0154653897        1.9912717491       -0.1510226686
 H         -7.1478164297        2.0729894400       -1.9021937186
 C         -6.1890101995        0.2849807797       -1.1893918296
 H         -6.8963614395       -0.1777447600       -1.8813717998
 H         -5.1907847995        0.1392770100       -1.6088599996
 C         -6.2856312895       -0.4763135810        0.1327803900
 H         -6.0202687094       -1.5202371809       -0.0530441005
 H         -7.3152938395       -0.4505701613        0.4963901600
 C         -5.3639965495        0.0577555485        1.2369269503
 H         -5.7496950296        0.9998368682        1.6258303708
 H         -5.3415636395       -0.6739321820        2.0483108999
 H         -5.5846127999        3.7153688998       -1.2988594877
 H         -4.6657648097        2.4118660903       -2.0530872384
 H         -4.9195705598        2.8079668287        0.9601135018
 H         -3.6062785298        3.4633645693       -0.0332868678
 O         -2.2772216897        1.5305447696       -0.3137345488
 C         -1.3741091396        0.4772302497       -0.3134832394
 O         -0.2717185996        0.7488338301       -0.8250637892
 H          1.8518682507       -1.9768685499       -0.5995023207
 C          1.7285709906       -1.6140407704        0.4066428995
 C          0.4706186606       -1.5043650509        0.9770143796
 C          0.3698394205       -1.0233073416        2.2811055898
 C          1.4958071405       -0.6528952619        2.9891676701
 C          2.7493134405       -0.7450230814        2.4081156100
 C          2.8616477806       -1.2271708307        1.1110759198
 N          4.1221165306       -1.3492078002        0.4919783497
 S          4.4077246605       -0.4805943694       -0.9130002298
 O          3.4903449406       -0.8941915890       -1.9411883500
 O          5.8134112506       -0.6838927692       -1.1911691599
 C          4.1368752104        1.2174632103       -0.4381250989
 C          5.2331056103        1.9778863302       -0.0767025884
 C          5.0356091902        3.2738307899        0.3698236123
 C          3.7481141101        3.7823114997        0.4577955025
 C          2.6601351002        3.0041758498        0.0950225321
 C          2.8486278403        1.7067112301       -0.3577691286
 H          2.0090753304        1.0932321702       -0.6455995390
 H          1.6547019602        3.3894649297        0.1595056323
 H          3.5905646600        4.7898152595        0.8096376331
 H          5.8814943901        3.8808661198        0.6498199726
 H          6.2149635503        1.5411640603       -0.1645104987
 H          4.8967494306       -1.2066331005        1.1259326898
 H          3.6318639205       -0.4497926516        2.9553602202
 H          1.3988225804       -0.2826664324        3.9985072603
 H         -0.6106651295       -0.9440095719        2.7308273899
 C         -0.7919865593       -1.8936677306        0.2504531993
 H         -1.2856450293       -2.6918348509        0.8249309489
 C         -0.5559230993       -2.3882678898       -1.1608935609
 C         -0.1622723991       -3.8138909396       -1.4017415117
 C         -1.5365663192       -3.3431590995       -1.7698020015
 H         -1.7832901492       -3.2330597790       -2.8152633314
 H         -2.3673715392       -3.6590144200       -1.1556037116
 H          0.5396136509       -4.0254099891       -2.1945267518
 H         -0.0601002591       -4.4562342801       -0.5401254520
 H         -0.1322015993       -1.6282844594       -1.8090484105
 O         -3.4285719194       -2.0004274214        1.3494012992
