  62
        -98.94191353
 C          1.3012188874        1.3712415366        0.7314331645
 C          1.8702866601        1.1049330560       -0.5386009967
 C          2.8023164026       -0.0325703171       -0.5968069576
 C          3.0116835220       -0.7764649521        0.5034829832
 C          3.9192759361       -1.9697375298        0.5728753795
 C          3.1693359874       -3.2713127560        0.2603429765
 C          2.3147609134       -3.2058137358       -1.0051035748
 H          1.8612620971       -4.1890664244       -1.1419816095
 H          1.4998813566       -2.4948252537       -0.8497614775
 C          3.0865429746       -2.8237637918       -2.2755988998
 H          4.1552771366       -2.9790044476       -2.1228961471
 H          2.7755795806       -3.4860115297       -3.0861101332
 C          2.8474508205       -1.3915787101       -2.7564723701
 H          1.7734100174       -1.1968288052       -2.8143663182
 H          3.2513519338       -1.3003856839       -3.7683760815
 C          3.4911451160       -0.2881055234       -1.9078684693
 H          4.5481265385       -0.5136718382       -1.7505204481
 H          3.4195943310        0.6469750913       -2.4712414615
 H          3.9015949475       -4.0753196842        0.1669061851
 H          2.5155589734       -3.4999718647        1.1039638212
 H          4.7386189588       -1.8320832517       -0.1303682579
 H          4.3281431706       -2.0298776958        1.5830905650
 O          2.3822888359       -0.5406635652        1.6836496088
 C          1.5138431538        0.5291333304        1.8254031121
 O          0.9958674207        0.6189878063        2.9570518885
 H         -1.3074231121        0.5405970586        0.4341510262
 C         -1.4937520216        1.3627888865       -0.2410565952
 C         -0.7146837854        2.5087300810       -0.1387933730
 C         -0.9508057056        3.5547879818       -1.0195660811
 C         -1.9439915627        3.4458369554       -1.9776800025
 C         -2.7328186999        2.3132470385       -2.0598136226
 C         -2.5049962094        1.2603670249       -1.1800972593
 N         -3.2767570370        0.0896812516       -1.2320834288
 S         -3.7159879218       -0.6898121187        0.1829755076
 O         -4.9253429445       -1.4062523174       -0.1641984770
 O         -3.8191570954        0.2331078321        1.2883978645
 C         -2.4244904815       -1.8809811912        0.4711945282
 C         -2.2777159611       -2.9061078215       -0.4431772790
 C         -1.3126230372       -3.8730325013       -0.2172319993
 C         -0.5111680907       -3.7984638287        0.9123774098
 C         -0.6623276577       -2.7581827864        1.8153971704
 C         -1.6318678454       -1.7916141676        1.5976671598
 H         -1.7762305813       -0.9733706008        2.2872563556
 H         -0.0311478457       -2.6832299202        2.6873496930
 H          0.2338609654       -4.5574034020        1.0920367556
 H         -1.1874026371       -4.6817450036       -0.9188932013
 H         -2.9283808072       -2.9344190265       -1.3012778797
 H         -4.0322871522        0.1072229127       -1.9014036061
 H         -3.5138769135        2.2370492475       -2.8011705022
 H         -2.1119011725        4.2600359863       -2.6664787012
 H         -0.3435055687        4.4436877835       -0.9726037020
 C          0.3377737677        2.5265235286        0.9423737868
 H         -0.1721496272        2.2996036802        1.8942935055
 C          1.0015330626        3.8824678740        1.1270940201
 C          2.3791611728        3.9920331854        1.7083138985
 C          2.1394728893        4.3547125926        0.2750703694
 H          2.1712568482        5.3994844961        0.0017145192
 H          2.4982456892        3.6906686214       -0.4942897665
 H          2.5761683950        4.7827529565        2.4166893138
 H          2.9041288910        3.0722311659        1.9231013673
 H          0.2874109918        4.6366033461        1.4449586170
 O          1.6331968959        1.7787571604       -1.5734092367
