  62
        -98.94260735
 C         -1.1951128248       -1.6387267668        0.1925231768
 C         -1.6160203140       -0.6797672522        1.1409340892
 C         -2.8310543705        0.0882576615        0.8199613039
 C         -3.4515681011       -0.1257835261       -0.3553153855
 C         -4.7144650764        0.4680208692       -0.9445654323
 C         -5.3934802459        1.6645639593       -0.2853739863
 C         -4.6197347981        2.9786072874       -0.4043784317
 H         -5.1112164317        3.7267690160        0.2213731320
 H         -4.6792249121        3.3209542424       -1.4406695975
 C         -3.1403909956        2.9154948746       -0.0324086778
 H         -2.7020001558        3.9003035711       -0.2179818295
 H         -2.6151298902        2.2177202351       -0.6884387016
 C         -2.8401670982        2.5465895227        1.4179721812
 H         -3.3326166745        3.2539192031        2.0890524909
 H         -1.7593690915        2.6478907873        1.5549190162
 C         -3.2364038234        1.1209064195        1.8325447095
 H         -4.2996238864        1.0572741808        2.0505233719
 H         -2.6965516376        0.8762806844        2.7524538674
 H         -5.6189957319        1.4413517025        0.7533130613
 H         -6.3514792963        1.8005106415       -0.7945482576
 H         -5.4328378747       -0.3581145490       -0.9899268805
 H         -4.4711644943        0.7204594047       -1.9818522167
 O         -2.9910303566       -1.0450622624       -1.2548094668
 C         -1.8518279466       -1.7990820404       -1.0253801418
 O         -1.5425767347       -2.5588937978       -1.9630784916
 O         -1.0002332271       -0.4725103502        2.2224895373
 C          0.0663142953       -2.4356943410        0.4622672977
 C          1.1626245810       -2.0408514713       -0.4989160945
 C          2.1132616016       -2.9326775111       -0.9807801271
 C          3.1130104250       -2.4949688574       -1.8325574926
 C          3.2039177443       -1.1653126239       -2.2031966250
 C          2.2598904086       -0.2646779986       -1.7231779161
 C          1.2523026619       -0.7109750285       -0.8842137630
 H          0.5094827353       -0.0070921144       -0.5442583732
 N          2.3022610167        1.0932429962       -2.0702030380
 S          1.8262749921        2.2531595904       -0.9628310663
 O          0.3934465521        2.2549218918       -0.8152640782
 O          2.4093981680        3.4789560752       -1.4671398886
 C          2.6387365289        1.7895287842        0.5562902381
 C          1.9351586446        1.2373364613        1.6062594391
 C          2.6278834561        0.8442561700        2.7414782433
 C          4.0017556584        1.0095257686        2.8092911725
 C          4.6941515374        1.5755063002        1.7489005847
 C          4.0087803866        1.9661247349        0.6112382154
 H          4.5076436506        2.4208740638       -0.2292131946
 H          5.7623892136        1.7092232478        1.8051855812
 H          4.5340761076        0.6982891570        3.6942458420
 H          2.0788416182        0.4052922750        3.5594096612
 H          0.8659715266        1.1099515778        1.5383673332
 H          3.1155519673        1.3787908440       -2.5946151739
 H          3.9870501915       -0.8273225207       -2.8641541756
 H          3.8390417299       -3.1998580818       -2.2081074379
 H          2.0664961971       -3.9709963600       -0.6960257006
 H          0.3893541043       -2.1339645024        1.4710633146
 C         -0.2206736827       -3.9227328513        0.4690007015
 C          0.5510101743       -4.8401362586        1.3688070593
 C         -0.8818855761       -4.5249112647        1.6717150616
 H         -1.6260948529       -5.2923157719        1.5208439412
 H         -1.0979569682       -3.8656175671        2.4998518324
 H          0.7905797051       -5.8303441920        1.0115303218
 H          1.3081653317       -4.4017751443        2.0011625606
 H         -0.5230568559       -4.2912395187       -0.5045311814
