  62
        -98.94826701
 C         -1.3392810892       -1.1647211711       -0.0342133697
 C         -2.1211850294       -0.5946429310        0.9981432901
 C         -2.6587248201        0.7461090286        0.7339409595
 C         -2.3592884405        1.3578691882       -0.4263822808
 C         -2.8655857312        2.7083699877       -0.8408156315
 C         -4.1802362212        2.5947608767       -1.6255237613
 C         -5.2298297807        1.7141401465       -0.9477207307
 H         -6.1242303408        1.7331027258       -1.5739967307
 H         -4.8712914602        0.6825193067       -0.9288242903
 C         -5.5957822508        2.1471769871        0.4787169791
 H         -5.2829703913        3.1785710973        0.6453592186
 H         -6.6818984008        2.1158629266        0.5872908392
 C         -5.0132753903        1.2588950979        1.5797001395
 H         -5.2454215998        0.2121242777        1.3676143000
 H         -5.5035284803        1.5181983281        2.5219029994
 C         -3.5005785503        1.3799215087        1.8049595593
 H         -3.2278241208        2.4296081289        1.9361263787
 H         -3.2563872899        0.8487914593        2.7300669495
 H         -4.5830865817        3.5988310365       -1.7697846917
 H         -3.9609371511        2.1711380263       -2.6081289311
 H         -3.0091251614        3.3223910781        0.0463567083
 H         -2.1114097315        3.1774981778       -1.4751328018
 O         -1.5878915903        0.7885008281       -1.3862265706
 C         -1.0602256097       -0.4857048015       -1.2189903101
 O         -0.3735054396       -0.8839671017       -2.1782899599
 O         -2.3571289590       -1.1817487906        2.0895753904
 C         -0.7253758185       -2.5366750807        0.1771902109
 C          0.7804305314       -2.4299761100        0.1542355807
 C          1.5983229318       -3.2703937899       -0.5896922490
 C          2.9731938117       -3.1112458992       -0.5649049992
 C          3.5580063413       -2.1132944386        0.1922002603
 C          2.7495986909       -1.2726760386        0.9496825699
 C          1.3747674110       -1.4438878093        0.9336798602
 H          0.7562626507       -0.7858211793        1.5275904399
 N          3.3130455005       -0.2572247080        1.7478502594
 S          2.7898907097        1.3203150417        1.5599880487
 O          3.7174401894        2.1075035625        2.3430317082
 O          1.3980401197        1.4298147012        1.9144095187
 C          3.0223603894        1.6643938810       -0.1722669615
 C          2.0304290595        1.2940194700       -1.0560645913
 C          2.2324749492        1.4820471095       -2.4135384514
 C          3.4196542889        2.0408792598       -2.8609711318
 C          4.4064419088        2.4142514608       -1.9599370220
 C          4.2126590591        2.2184969313       -0.6021070219
 H          4.9507300590        2.4954842121        0.1332681679
 H          5.3265848486        2.8515740311       -2.3127296323
 H          3.5742923587        2.1859335294       -3.9185283718
 H          1.4588008293        1.1739844588       -3.0993179911
 H          1.1176474697        0.8626858198       -0.6777155310
 H          4.3232866005       -0.2759065374        1.7743556693
 H          4.6297540312       -1.9852260681        0.2038461201
 H          3.5968920419       -3.7688229192       -1.1508489189
 H          1.1596884321       -4.0482078904       -1.1924659286
 H         -1.0273887283       -2.8364075004        1.1922503911
 C         -1.2842380781       -3.5362443415       -0.8131207386
 C         -1.3609515374       -4.9895256913       -0.4549834678
 C         -2.6123914678       -4.1689305120       -0.5287946581
 H         -3.2921589278       -4.3335118427       -1.3513238080
 H         -3.1034057878       -3.8970767218        0.3945263018
 H         -1.1845965171       -5.7218569416       -1.2282058575
 H         -1.0056351971       -5.2829430107        0.5212785823
 H         -1.0680065784       -3.2701134219       -1.8414552287
