  62
        -98.94827954
 C         -0.7870848690       -1.1640113392        0.5974458796
 C         -1.2419647089       -0.6456484483       -0.6388307201
 C         -2.1864605889        0.4743950616       -0.5448698894
 C         -2.4692112691        1.0106814907        0.6553097810
 C         -3.4241911592        2.1441934605        0.9145017517
 C         -4.8883519392        1.6980145804        1.0380333112
 C         -5.5562336490        1.2824446313       -0.2736994292
 H         -6.6274421590        1.2072621611       -0.0761101294
 H         -5.4172902489        2.0686425718       -1.0161747486
 C         -5.0652220989       -0.0572220883       -0.8405314501
 H         -4.5493444390       -0.6174086088       -0.0570770005
 H         -5.9239512088       -0.6579160381       -1.1489048606
 C         -4.1401487388        0.0670132426       -2.0515784299
 H         -3.8231506887       -0.9370901772       -2.3439349206
 H         -4.6899345187        0.5035003332       -2.8882527097
 C         -2.8822536288        0.9091663725       -1.7987927292
 H         -3.1468360588        1.9637425724       -1.7444811984
 H         -2.1917294087        0.7564192731       -2.6308572592
 H         -4.9430915192        0.8729316699        1.7521546306
 H         -5.4504284292        2.5360829001        1.4567341517
 H         -3.1235903693        2.5966948198        1.8618758820
 H         -3.3381859291        2.8899493611        0.1246298422
 O         -1.8941049292        0.5720918599        1.8083682307
 C         -1.0879776792       -0.5550409101        1.8147020500
 O         -0.7018513993       -0.9058596009        2.9495744198
 O         -0.9000957288       -1.1052165475       -1.7579065604
 C          0.0553085310       -2.4268912992        0.6230036788
 C          1.3179617711       -2.2272435186       -0.1766429709
 C          1.7229051012       -3.0695428479       -1.2033806815
 C          2.8939478913       -2.8133912173       -1.8952719311
 C          3.6822693712       -1.7234585175       -1.5774824803
 C          3.2930452011       -0.8837003183       -0.5385701997
 C          2.1197596410       -1.1404206488        0.1514514300
 H          1.8256118709       -0.4925313694        0.9654725404
 N          4.0869543010        0.2117402115       -0.1778856888
 S          3.4954479909        1.5044904408        0.6761125720
 O          4.4961760409        2.5348809910        0.4871852829
 O          3.2401349407        1.1334795698        2.0461495517
 C          1.9847640810        2.0382305214       -0.1092333878
 C          1.0380911909        2.6556862908        0.6829057226
 C         -0.0875447591        3.1998358812        0.0875916828
 C         -0.2518175689        3.1083846322       -1.2852773473
 C          0.6960314612        2.4667853727       -2.0652985776
 C          1.8313555111        1.9335977523       -1.4766634579
 H          2.5843192712        1.4399910128       -2.0689010181
 H          0.5582346313        2.3839334235       -3.1311824977
 H         -1.1224290989        3.5412041525       -1.7509620670
 H         -0.8259589292        3.6947012607        0.6974538431
 H          1.1994402207        2.6943727400        1.7491064926
 H          4.8366016411        0.4526506619       -0.8076050786
 H          4.5934109413       -1.5227179471       -2.1195574500
 H          3.1946557614       -3.4702925368       -2.6971290116
 H          1.1196289213       -3.9215931677       -1.4684726722
 H          0.3427205409       -2.5797090100        1.6738230687
 C         -0.7778183489       -3.6071474889        0.1666156778
 C         -0.4536426290       -4.9889911592        0.6460981169
 C         -1.6742947690       -4.2853413696        1.1567029172
 H         -2.6441881190       -4.6263943894        0.8267739169
 H         -1.6657525292       -3.9108953404        2.1704699575
 H         -0.5884134989       -5.8171936788       -0.0330310037
 H          0.3840058610       -5.1005161597        1.3179496969
 H         -1.1516269088       -3.4886176582       -0.8438855921
