  62
        -98.93914399
 C          1.8886232134        1.0516729227       -0.2043908829
 C          3.0084909779        1.1047524772        0.6655652719
 C          4.2482684703        0.4527307532        0.2123221735
 C          4.2675634264       -0.1603983312       -0.9854998134
 C          5.3803857768       -0.8701387854       -1.7279143878
 C          6.6712678245       -1.2588216250       -1.0122626631
 C          6.5118115778       -2.3500374273        0.0461442307
 H          7.4675287318       -2.4690446237        0.5611592657
 H          6.2868820716       -3.2929924370       -0.4588135845
 C          5.4158667752       -2.1111145201        1.0819114540
 H          5.4057604196       -2.9679976574        1.7611333212
 H          4.4423641308       -2.0838905618        0.5876111093
 C          5.5786486124       -0.8501223126        1.9282629791
 H          6.5611666425       -0.8513621259        2.4042169545
 H          4.8237961730       -0.8853223584        2.7185174660
 C          5.3992746242        0.4796577380        1.1761420430
 H          6.3161583654        0.7754984398        0.6720375438
 H          5.1645892994        1.2541574769        1.9120777547
 H          7.1445705510       -0.3793422368       -0.5857298993
 H          7.3493577461       -1.6416853975       -1.7798934921
 H          5.6351956041       -0.2196612476       -2.5719895168
 H          4.9257977649       -1.7680153628       -2.1589031705
 O          3.1689025126       -0.1806357867       -1.7928367190
 C          1.9641873409        0.4019583815       -1.4344607877
 O          1.0749953325        0.2600753844       -2.2993198043
 O          2.9774054018        1.6904831145        1.7804196943
 C          0.6188960884        1.7317954055        0.2790912582
 C         -0.3691691747        0.7353983435        0.8371087925
 C         -0.7569598887        0.7836040119        2.1707391107
 C         -1.6836561926       -0.1157799864        2.6698501881
 C         -2.2426778369       -1.0786849923        1.8495219799
 C         -1.8568263614       -1.1371550705        0.5162685777
 C         -0.9338055861       -0.2309124796        0.0163823796
 H         -0.6346547524       -0.2857128619       -1.0197609898
 N         -2.4295544539       -2.1069476362       -0.3299788932
 S         -4.1045126690       -2.1361528513       -0.3762355982
 O         -4.6011979820       -2.8693839247        0.7616406077
 O         -4.4503633969       -2.6737938232       -1.6731176191
 C         -4.5855108964       -0.4227248139       -0.2500435116
 C         -5.2406344349        0.0305859030        0.8764373012
 C         -5.5478956930        1.3782450829        0.9753078053
 C         -5.1915662450        2.2447777790       -0.0459804121
 C         -4.5357686382        1.7728797047       -1.1727493873
 C         -4.2260374576        0.4271047798       -1.2773910631
 H         -3.7183860890        0.0282450459       -2.1414015689
 H         -4.2605992481        2.4469142498       -1.9681600330
 H         -5.4260876129        3.2944194272        0.0346650932
 H         -6.0591439392        1.7480842832        1.8493333408
 H         -5.4964446812       -0.6772025294        1.6477420487
 H         -2.0478404200       -2.0884456990       -1.2650188290
 H         -2.9666936317       -1.7876577748        2.2174544263
 H         -1.9738573105       -0.0667186702        3.7081070175
 H         -0.3170031070        1.5257945926        2.8205310685
 H          0.9411161708        2.3796042565        1.1050440330
 C         -0.0435467840        2.5946107213       -0.7783879280
 C         -1.0095579016        3.6550130091       -0.3461529416
 C          0.3329880310        4.0400938958       -0.8897872661
 H          0.3875685263        4.4828427735       -1.8730442152
 H          1.0745121489        4.4180280790       -0.2010679750
 H         -1.8819163158        3.8347171289       -0.9546499145
 H         -1.1803256908        3.7726092218        0.7129290218
 H         -0.2531789176        2.0638000419       -1.6976486773
