  62
        -98.94264120
 C         -1.9547980040       -1.5564485853       -0.0436411101
 C         -1.5801422029       -0.2783248802       -0.5299704857
 C         -2.6740161294        0.7002376907       -0.6564255109
 C         -3.9309168764        0.3385203821       -0.3452231327
 C         -5.1254005080        1.2458758580       -0.3925317840
 C         -5.3582297170        1.9257127277        0.9638744555
 C         -4.1016449028        2.5637452300        1.5561404349
 H         -4.3911310093        3.0411102554        2.4949113081
 H         -3.3849274931        1.7772532137        1.8039933505
 C         -3.4254864132        3.5962209871        0.6436181691
 H         -3.1624707348        4.4710218291        1.2421282527
 H         -4.1273292539        3.9282304628       -0.1223411511
 C         -2.1375932324        3.1095390420       -0.0238691619
 H         -1.6372989618        3.9790774864       -0.4571772393
 H         -1.4697063690        2.6864508530        0.7304786992
 C         -2.3102270907        2.0748076036       -1.1426935711
 H         -3.0418227840        2.4341730038       -1.8692398566
 H         -1.3447803859        1.9652209085       -1.6451041066
 H         -5.7270732581        1.1763786100        1.6683168072
 H         -6.1322637291        2.6856548338        0.8415574056
 H         -4.9763640887        1.9959171240       -1.1667045733
 H         -6.0026088731        0.6469707465       -0.6437215055
 O         -4.2531393111       -0.9016725098        0.1045150139
 C         -3.2748202107       -1.8624442962        0.2980726396
 O         -3.6992662593       -2.9352443258        0.7726712313
 H          1.6369878876       -2.3403988454       -0.7641702362
 C          1.5166301465       -1.9707860963        0.2420627472
 C          0.2844107216       -2.0617135272        0.8678280251
 C          0.1513867337       -1.5450362219        2.1535464826
 C          1.2226579500       -0.9489841953        2.7909940640
 C          2.4510549299       -0.8549620853        2.1604825723
 C          2.5922396660       -1.3638806960        0.8769130633
 N          3.8344618726       -1.2715714497        0.2208893453
 S          4.5852166060        0.2221726188        0.1355055688
 O          5.5994380256        0.0682350573       -0.8838376712
 O          5.0581446483        0.5916486494        1.4465129425
 C          3.3367059798        1.3686607129       -0.4136982501
 C          2.6670376059        2.1479374695        0.5065009112
 C          1.6843888322        3.0145800829        0.0574527881
 C          1.3886557360        3.0831244606       -1.2941576447
 C          2.0653771505        2.2880593351       -2.2048947479
 C          3.0473602549        1.4187614665       -1.7621891619
 H          3.6038363450        0.7921435230       -2.4408913640
 H          1.8269278741        2.3395284057       -3.2553429618
 H          0.6250648569        3.7614416615       -1.6412971359
 H          1.1504600459        3.6314095982        0.7627418655
 H          2.9301406672        2.0704129723        1.5488094690
 H          3.8317606026       -1.6998425118       -0.6939952309
 H          3.2962228632       -0.3873134138        2.6389895992
 H          1.1020015324       -0.5510793805        3.7875413219
 H         -0.8119817548       -1.6058803397        2.6425340053
 C         -0.9291379274       -2.6526875272        0.1952988506
 H         -1.4096492886       -3.3435788175        0.9072616940
 C         -0.5925390544       -3.4721420618       -1.0417209417
 C         -1.6296279684       -3.7388536276       -2.0903036909
 C         -0.4586879245       -2.8584488082       -2.4020409379
 H          0.3045196011       -3.2416695348       -3.0641877211
 H         -0.6211893652       -1.7959594955       -2.4904407897
 H         -1.6693423047       -4.7225559375       -2.5335937546
 H         -2.5990699339       -3.2797065382       -1.9625358784
 H          0.0763366880       -4.2957024999       -0.8092269158
 O         -0.4075588738        0.0436626677       -0.8482031197
