  62
        -98.94831771
 C         -0.8253390703       -1.3044638854        0.0650061277
 C         -1.6938211783       -0.9459427444        1.1216552034
 C         -2.4833726190        0.2749916219        0.9161615972
 C         -2.3175425652        0.9822717199       -0.2167580966
 C         -3.1263705884        2.1876184839       -0.5972462793
 C         -4.3771452091        1.7866931262       -1.3932309203
 C         -5.1930992263        0.6667038617       -0.7482857767
 H         -6.0635877910        0.4905403794       -1.3838340485
 H         -4.6023770567       -0.2521227020       -0.7498128653
 C         -5.6584530870        0.9648325115        0.6836862839
 H         -5.5967125370        2.0360261202        0.8789278951
 H         -6.7076322793        0.6775402086        0.7797420765
 C         -4.8889913077        0.2088880984        1.7682401960
 H         -4.8738298997       -0.8580993021        1.5317163745
 H         -5.4259067914        0.3265519696        2.7134096549
 C         -3.4444462518        0.6693655351        2.0020602368
 H         -3.4225216989        1.7494640170        2.1624409616
 H         -3.0828188150        0.1825141873        2.9130187498
 H         -5.0052090698        2.6709084246       -1.5156592118
 H         -4.0621811224        1.4521070976       -2.3840586066
 H         -3.4116559086        2.7281764595        0.3031630590
 H         -2.5070063198        2.8327178555       -1.2204145982
 O         -1.4283752760        0.6392776083       -1.1826292460
 C         -0.6639618979       -0.5125988693       -1.0719950968
 O          0.1026712190       -0.7164357048       -2.0308250992
 H          1.3258008442       -0.4789181383        1.1498426500
 C          1.9793220472       -1.1455967786        0.6060340371
 C          1.4612763750       -2.2969880253        0.0273243776
 C          2.3280171831       -3.1492278035       -0.6461791711
 C          3.6736545038       -2.8427681781       -0.7486865859
 C          4.1806149855       -1.6818550332       -0.1951583746
 C          3.3219149183       -0.8264211504        0.4875661162
 N          3.8051540533        0.3585324070        1.0613826989
 S          2.8474475410        1.6962385548        1.2886551624
 O          3.7941546359        2.7594440695        1.5595559398
 O          1.8772093774        1.4558438843        2.3296229633
 C          2.0080528686        2.0770911773       -0.2409461472
 C          2.4387458074        1.5896747689       -1.4570522041
 C          1.7847415046        1.9958948185       -2.6097434073
 C          0.7366803612        2.8972893707       -2.5327785748
 C          0.3254295436        3.3902402409       -1.3046282291
 C          0.9587022407        2.9699543626       -0.1477118312
 H          0.6570716883        3.3116054252        0.8302554402
 H         -0.4838327545        4.1005755296       -1.2420883528
 H          0.2333627324        3.2120852333       -3.4333729296
 H          2.0949469094        1.5999943924       -3.5629827100
 H          3.2542468685        0.8871786019       -1.5083115970
 H          4.7557689617        0.6045932648        0.8294670196
 H          5.2273217601       -1.4353759506       -0.2867470706
 H          4.3355301913       -3.5122336524       -1.2764675098
 H          1.9489841861       -4.0525651311       -1.0948652133
 C         -0.0123863063       -2.5793567426        0.1783133842
 H         -0.1868332195       -2.9497021369        1.2004067376
 C         -0.5271620824       -3.6101270160       -0.8072815351
 C         -0.4888570693       -5.0710314794       -0.4744216558
 C         -1.7967248760       -4.3402706948       -0.4903036575
 H         -2.4927025032       -4.5393298942       -1.2914289132
 H         -2.2712918172       -4.1173849659        0.4544538409
 H         -0.2891809685       -5.7759398315       -1.2674594971
 H         -0.0819447930       -5.3560096068        0.4840911608
 H         -0.3649026911       -3.3131488505       -1.8375530171
 O         -1.8113827347       -1.6216482259        2.1811067782
