  62
        -98.94376470
 C         -1.9135466897       -1.2462868990       -0.3134275303
 C         -1.8693582594        0.0263184908        0.3056235801
 C         -3.1337477692        0.4905149008        0.8908980905
 C         -4.2242794394       -0.2956962690        0.8419158703
 C         -5.5798870292        0.0351369810        1.4048466906
 C         -6.4495249992        0.8886790315        0.4712907411
 C         -6.0228958490        2.3514037714        0.3392199015
 H         -6.8377355490        2.8778025717       -0.1619632182
 H         -5.9164746188        2.7884879811        1.3326060316
 C         -4.7308309491        2.5653238915       -0.4615979386
 H         -4.5116754793        1.6679785217       -1.0448594289
 H         -4.8750731191        3.3817642418       -1.1728069983
 C         -3.5086038989        2.9143393610        0.3878387914
 H         -2.6458080690        3.0037741311       -0.2767136887
 H         -3.6630437487        3.8807921109        0.8727444517
 C         -3.1731126889        1.8746032106        1.4650700310
 H         -3.8954086788        1.9299509004        2.2791763411
 H         -2.1802407489        2.0976028503        1.8637096009
 H         -6.4629551394        0.4221206618       -0.5165629391
 H         -7.4689561592        0.8639683015        0.8633846512
 H         -6.0879867394       -0.9169495690        1.5731710004
 H         -5.4665292390        0.5419052006        2.3636889808
 O         -4.2136326797       -1.5299908888        0.2702982799
 C         -3.0701717898       -2.0244610788       -0.3375429604
 O         -3.2058450901       -3.1557011086       -0.8478254708
 O         -0.8350635593        0.7371839406        0.3676267903
 C         -0.6766778199       -1.7947947390       -0.9990464206
 C          0.4917111803       -1.8600414095       -0.0455858808
 C          0.2852756304       -2.2598019399        1.2716236891
 C          1.3351039605       -2.3215944604        2.1682758289
 C          2.6210570005       -2.0007524605        1.7693634088
 C          2.8420698504       -1.6180459300        0.4542376789
 C          1.7841106502       -1.5520858796       -0.4449448309
 H          1.9762253902       -1.2500262992       -1.4631090708
 N          4.1557731604       -1.2976719301        0.0462705189
 S          4.8297663607        0.1065213696        0.6654756493
 O          6.1721468206        0.1646458595        0.1331380591
 O          4.7082095509        0.0876550191        2.1000651393
 C          3.8524184208        1.4252247800       -0.0333870801
 C          2.5525664209        1.5915682300        0.4011333001
 C          1.7631020409        2.5582360404       -0.2012646394
 C          2.2880479509        3.3450782406       -1.2147666892
 C          3.5993265409        3.1728772806       -1.6334759495
 C          4.3881577808        2.1972088302       -1.0461594899
 H          5.4084403907        2.0207658602       -1.3467800501
 H          4.0045236409        3.7895127408       -2.4198363293
 H          1.6692957410        4.0954874409       -1.6818112389
 H          0.7366922510        2.6580957704        0.1130703507
 H          2.1604342609        0.9696616198        1.1893219999
 H          4.2726234402       -1.2992764598       -0.9580295211
 H          3.4482521606       -2.0242426208        2.4595130987
 H          1.1518879106       -2.6243832507        3.1884246188
 H         -0.7172010496       -2.5133095499        1.5894659191
 H         -0.9265499401       -2.8225108388       -1.3021357310
 C         -0.3839246899       -0.9758855686       -2.2415185804
 C          0.2074543698       -1.6186404282       -3.4592967607
 C         -1.2284981201       -1.1900618080       -3.4601523404
 H         -1.5127881200       -0.3316950678       -4.0500369800
 H         -1.9917056502       -1.9530588079       -3.4041156405
 H          0.9081273499       -1.0519121282       -4.0543623906
 H          0.4171568597       -2.6769988483       -3.4170314011
 H         -0.0936792097        0.0422006213       -2.0063696501
