  62
        -98.94100699
 C          2.3402182920       -0.6269107866        0.2204128212
 C          3.5886248396       -1.0040779050       -0.3317144105
 C          4.5031384214        0.0947568679       -0.6668940251
 C          4.1027229130        1.3647385755       -0.4726719147
 C          4.9485911783        2.5775964677       -0.7296095632
 C          5.7348036803        2.9850294953        0.5245025069
 C          6.4820075698        1.8284422086        1.1884760074
 H          7.0231850802        2.2395067494        2.0433753676
 H          5.7552370004        1.1137754958        1.5812642689
 C          7.4652560591        1.0947317905        0.2658871720
 H          7.6933984347        1.7154427917       -0.6012929059
 H          8.4008125281        0.9361848083        0.8063180296
 C          6.9857395268       -0.2788441176       -0.2068250708
 H          7.8330378828       -0.7956907046       -0.6651755432
 H          6.6674495775       -0.8720895446        0.6540437298
 C          5.8464154324       -0.2703739669       -1.2337968061
 H          5.7404901240       -1.2879952646       -1.6211310259
 H          6.1053611031        0.3876851811       -2.0658085815
 H          6.4435733769        3.7675686705        0.2475060718
 H          5.0341473383        3.4026107033        1.2512403045
 H          5.6340537842        2.3684315434       -1.5486695069
 H          4.2911684667        3.3992170783       -1.0191496917
 O          2.8836809618        1.6894522753        0.0286658266
 C          1.9735416887        0.7076569414        0.3933721711
 O          0.9025100949        1.1490293332        0.8525361645
 O          3.9202557634       -2.2026710334       -0.5358646318
 C          1.3487479991       -1.7186723513        0.5857681958
 C          0.1420740179       -1.5885372414       -0.3102915697
 C          0.3012095582       -1.8232490445       -1.6741488522
 C         -0.7600771441       -1.6716416098       -2.5444876329
 C         -2.0043782097       -1.2839173982       -2.0766125877
 C         -2.1722884807       -1.0416929260       -0.7208452363
 C         -1.1030470224       -1.2004181561        0.1542879235
 H         -1.2452027252       -0.9979879811        1.2041204926
 N         -3.4359724284       -0.6718731839       -0.2187610816
 S         -4.3403148616        0.4763878130       -1.0639715158
 O         -4.8633975572       -0.1392683636       -2.2581976990
 O         -3.5735016237        1.6868226652       -1.2626994141
 C         -5.6640602637        0.7537986256        0.0959830367
 C         -6.7298613494       -0.1258598651        0.1064862938
 C         -7.7486964872        0.0677146372        1.0254883334
 C         -7.6845546311        1.1306508237        1.9142425938
 C         -6.6086842661        2.0054267947        1.8911892951
 C         -5.5853407986        1.8167442533        0.9753501647
 H         -4.7337973786        2.4762432821        0.9168410618
 H         -6.5624119405        2.8323406720        2.5815179938
 H         -8.4790493814        1.2805670768        2.6281282641
 H         -8.5878837856       -0.6086693160        1.0455312396
 H         -6.7399669512       -0.9314428087       -0.6086928348
 H         -3.3789691512       -0.4050141120        0.7555184285
 H         -2.8370442307       -1.1518183969       -2.7477775847
 H         -0.6214983913       -1.8544741957       -3.5997765949
 H          1.2751888965       -2.1164457308       -2.0420085991
 H          1.8537085492       -2.6635504494        0.3403031258
 C          1.0321819767       -1.7043232950        2.0655403321
 C          0.4432565995       -2.9224564377        2.7102816957
 C          1.8622023746       -2.5350027835        2.9959875910
 H          2.1024647877       -2.1330657390        3.9689060790
 H          2.6533900880       -3.1285769559        2.5620033577
 H         -0.2910818379       -2.7904700304        3.4902535887
 H          0.2687328875       -3.7819911943        2.0811470585
 H          0.7131837225       -0.7311327165        2.4205951135
