  62
        -98.94617196
 C         -1.5299986186       -1.4690374691       -0.0449060810
 C         -1.4962177120       -0.1071427221        0.3420192945
 C         -2.7880405900        0.4769622097        0.7310566675
 C         -3.8898134413       -0.2951101973        0.7239400123
 C         -5.2756960708        0.1895397707        1.0354715276
 C         -5.9954087419        0.6650972165       -0.2346820966
 C         -5.1691572397        1.6236298922       -1.0925195112
 H         -4.3038431252        1.0886867783       -1.4904551573
 H         -5.7885135649        1.9113276043       -1.9449604969
 C         -4.6922801364        2.8844378494       -0.3579291857
 H         -5.2830571337        3.0304656332        0.5471180853
 H         -4.8657378691        3.7502125485       -1.0006555573
 C         -3.2052447525        2.8848274704        0.0017409234
 H         -2.6137941564        2.6461935052       -0.8854255388
 H         -2.9351509890        3.8958119540        0.3178593021
 C         -2.7931010274        1.9267732187        1.1260808874
 H         -1.7606942501        2.1603734198        1.4024007820
 H         -3.4301693098        2.0869656844        1.9981391004
 H         -6.9292203304        1.1484664687        0.0584848233
 H         -6.2422187126       -0.2098748844       -0.8407103262
 H         -5.8395328002       -0.6354016720        1.4742217656
 H         -5.2173501570        1.0013162891        1.7579890747
 O         -3.8739188344       -1.6096510206        0.3813471971
 C         -2.6988940323       -2.2272879287       -0.0189124444
 O         -2.8231222843       -3.4343643347       -0.3110938800
 H          2.3096224838       -1.1114706784       -0.7731825820
 C          2.0586827114       -1.3830015700        0.2374522049
 C          0.8260709765       -1.9396894968        0.5364445247
 C          0.5644780795       -2.3135411589        1.8525928834
 C          1.5042097952       -2.1112047216        2.8439483639
 C          2.7192364039       -1.5170843781        2.5487944385
 C          2.9945036029       -1.1528238706        1.2368964797
 N          4.2185184651       -0.5595077100        0.9025768960
 S          4.3378654990        0.5211484321       -0.3636825362
 O          4.3357993159       -0.1882081503       -1.6195986762
 O          5.5464967296        1.2650539872       -0.0724877982
 C          2.9316244572        1.6135874045       -0.2705636117
 C          2.1560630435        1.8130402201       -1.3930285485
 C          1.0907119093        2.6944787881       -1.3249014468
 C          0.8186331230        3.3564412857       -0.1396555657
 C          1.6074960605        3.1462473902        0.9793923710
 C          2.6764338446        2.2688431610        0.9163785663
 H          3.3083178942        2.0887560780        1.7713029349
 H          1.3869790885        3.6573385775        1.9031570197
 H         -0.0198232404        4.0331957649       -0.0867292226
 H          0.4694107779        2.8528062715       -2.1925964177
 H          2.3965951993        1.2701386336       -2.2940833366
 H          4.8005918010       -0.2970756587        1.6836100954
 H          3.4476654277       -1.3403600336        3.3252783927
 H          1.2855682569       -2.4047987389        3.8597520383
 H         -0.3941772831       -2.7566323059        2.0875685282
 C         -0.2476654653       -2.1399598551       -0.5041192436
 H         -0.4673224008       -3.2145791222       -0.5809767439
 C          0.1393904734       -1.6176629507       -1.8722216260
 C          0.9799364086       -2.4516795021       -2.7901731038
 C         -0.4711347011       -2.2316420910       -3.0942211225
 H         -0.7344503073       -1.5872943403       -3.9196631087
 H         -1.1564184823       -3.0538356194       -2.9468352268
 H          1.7206793871       -1.9596087498       -3.4030330056
 H          1.2824121668       -3.4274620616       -2.4409113342
 H          0.2922744655       -0.5438063219       -1.8762953329
 O         -0.4469143589        0.5835950739        0.3610616914
