  62
        -98.93756865
 C          1.9094839338       -0.4214924703        0.2128691541
 C          2.9296080636       -0.8689422919       -0.6638070254
 C          4.1702606615       -0.0811939403       -0.6787886794
 C          4.2564540976        1.0167156047        0.0940222822
 C          5.4742303720        1.8833514973        0.2447615736
 C          6.4964866353        1.1975625046        1.1737113381
 C          7.8027916777        0.7971424009        0.4877183644
 H          8.4124866241        1.6904790698        0.3366037648
 H          8.3440732001        0.1413347346        1.1730255111
 C          7.6585716747        0.0943964205       -0.8656540687
 H          8.6269961489       -0.3556616689       -1.0943607680
 H          7.4682004510        0.8339962497       -1.6448525922
 C          6.5790093473       -0.9926532037       -0.9462747906
 H          6.3671528722       -1.3984057484        0.0431583003
 H          6.9698179945       -1.8143193834       -1.5498636254
 C          5.2622612033       -0.5405911255       -1.6049971641
 H          5.4713193336        0.2420376201       -2.3396344304
 H          4.8320692784       -1.3896900016       -2.1441996249
 H          6.0254085091        0.3127293699        1.6069139980
 H          6.7369290173        1.8630295584        2.0042393254
 H          5.1473810283        2.8312517461        0.6728692609
 H          5.9124333212        2.0751235786       -0.7321826923
 O          3.2477024861        1.4293975589        0.9032033250
 C          2.0521455668        0.7295055429        0.9871215972
 O          1.2289556134        1.2306426211        1.7767126732
 O          2.8063944649       -1.8839853200       -1.3998797667
 C          0.6108554598       -1.2105376996        0.2522740069
 C         -0.4691828972       -0.3939453579       -0.4121503720
 C         -0.5906036173       -0.4190894585       -1.7985019547
 C         -1.5546596431        0.3378447916       -2.4382272486
 C         -2.4168796050        1.1376063466       -1.7086328964
 C         -2.2967659843        1.1754947041       -0.3261555567
 C         -1.3368922485        0.4054134755        0.3161069858
 H         -1.2454840213        0.4562207447        1.3894117611
 N         -3.1830288553        1.9776257951        0.4200173062
 S         -4.8129115129        1.6710918232        0.1811179577
 O         -5.2540154079        2.3278887717       -1.0239482685
 O         -5.4708565899        2.0809244755        1.4017572068
 C         -4.9002068119       -0.0990982175       -0.0250709611
 C         -5.1805438332       -0.6358438057       -1.2647784387
 C         -5.1669678349       -2.0132275677       -1.4165246672
 C         -4.8687957325       -2.8245565698       -0.3331085800
 C         -4.5918068171       -2.2698704365        0.9071165007
 C         -4.6039862720       -0.8939618276        1.0645988994
 H         -4.3981079271       -0.4288956361        2.0153746341
 H         -4.3608906472       -2.9039030873        1.7480305131
 H         -4.8519782070       -3.8962420189       -0.4541950513
 H         -5.3829178981       -2.4477869567       -2.3792012755
 H         -5.4046638486        0.0313130855       -2.0807523834
 H         -2.9626027832        2.0021635170        1.4051942268
 H         -3.1770366650        1.7349422749       -2.1858365219
 H         -1.6374054073        0.3057154322       -3.5138896672
 H          0.0893094988       -1.0359009609       -2.3691623783
 H          0.7944628017       -2.0964274372       -0.3700808639
 C          0.2484030570       -1.6627769972        1.6519035333
 C         -0.8566045600       -2.6597349568        1.8313002567
 C          0.5652666298       -3.0637349284        2.0770663394
 H          0.8863931304       -3.2321645773        3.0942010735
 H          1.0462985635       -3.7081608069        1.3561385383
 H         -1.5128426944       -2.5520396343        2.6812195455
 H         -1.3440941907       -3.0251699442        0.9403043782
 H          0.3548802500       -0.8843881314        2.3974758883
