  62
        -98.93635122
 C          2.4147283199        0.0789525495       -0.4801570102
 C          3.6381828600        0.3877473398       -1.1281821201
 C          4.8005056599        0.5852171095       -0.2559137699
 C          4.6472215998        0.5298495891        1.0791861601
 C          5.7309953398        0.7308324588        2.1033647602
 C          6.5622013698       -0.5280319913        2.3873691398
 C          7.5306602299       -0.9344901109        1.2756985498
 H          8.1450532899       -0.0771448008        0.9990615101
 H          8.1972821799       -1.6917068610        1.6931648296
 C          6.8533796100       -1.5102415005        0.0241016495
 H          5.8288913600       -1.8022015206        0.2668541594
 H          7.3773682200       -2.4156293804       -0.2903324607
 C          6.8272700500       -0.5622217601       -1.1749798502
 H          6.2924481501       -1.0551007899       -1.9911178404
 H          7.8481167300       -0.3681905000       -1.5112674500
 C          6.1391244700        0.7814307297       -0.9008838498
 H          6.7744360299        1.4099452696       -0.2772270795
 H          5.9765007100        1.2857333001       -1.8566631696
 H          7.1425911997       -0.3367858016        3.2928843399
 H          5.8813040998       -1.3559432214        2.5982550195
 H          6.3898501798        1.5395381989        1.7855659005
 H          5.2328289497        1.0309785384        3.0277716703
 O          3.4436783798        0.2991826588        1.6657381899
 C          2.3019478099        0.0527922090        0.9107948297
 O          1.2857791698       -0.1627501012        1.5962997096
 O          3.7510963601        0.4984392902       -2.3781504300
 C          1.1994330700       -0.1541310002       -1.3591329304
 C          0.0293835900        0.6562300096       -0.8610605202
 C          0.1431040499        2.0441290696       -0.8488798097
 C         -0.8973387801        2.8360880994       -0.4045613895
 C         -2.0782183101        2.2626992892        0.0331838602
 C         -2.2045706801        0.8810598192        0.0215294797
 C         -1.1573312501        0.0861892794       -0.4302408405
 H         -1.2626823400       -0.9875211106       -0.4135811708
 N         -3.3985424501        0.2929002090        0.4773150295
 S         -4.8427693601        0.9895677992       -0.0547272904
 O         -4.7609016800        1.2766754196       -1.4697230703
 O         -5.1538766602        2.1110274389        0.7960697299
 C         -5.9998722301       -0.3325606610        0.2444626391
 C         -6.3506857900       -1.1716825606       -0.7961593612
 C         -7.2364873000       -2.2091350507       -0.5510673216
 C         -7.7508526701       -2.3906978512        0.7239206483
 C         -7.3888185401       -1.5403823015        1.7582894486
 C         -6.5047276602       -0.5001736014        1.5200199890
 H         -6.2028557902        0.1904404784        2.2900022693
 H         -7.7930092202       -1.6834445618        2.7474320085
 H         -8.4409235400       -3.1980779713        0.9117212480
 H         -7.5223617599       -2.8697164505       -1.3537423818
 H         -5.9336678099       -0.9867722303       -1.7731756411
 H         -3.4036545501       -0.7097542509        0.3489656291
 H         -2.9013614702        2.8671606891        0.3791695503
 H         -0.7914523102        3.9109027394       -0.3981741292
 H          1.0661800199        2.4949259597       -1.1886252495
 H          1.4949082501        0.2577821501       -2.3391417202
 C          0.8702361301       -1.6206858602       -1.5945454209
 C          1.9471080001       -2.6629187902       -1.5688701812
 C          0.8996338800       -2.6421438605       -0.4984359712
 H          0.1503711500       -3.4206729005       -0.5038383715
 H          1.1747935400       -2.3080275308        0.4894122889
 H          1.9173698502       -3.4509845499       -2.3062308914
 H          2.9464860501       -2.3418738402       -1.3132962910
 H          0.1033506501       -1.7433461999       -2.3538291810
