  62
        -98.94387084
 C         -1.8779120293       -1.2744584815        0.1255076414
 C         -2.3746912196       -0.4309083706        1.1507066206
 C         -3.7307295698        0.0908133686        0.9572530002
 C         -4.4172475198       -0.2346715827       -0.1533982394
 C         -5.8224445299        0.1906636664       -0.4823651197
 C         -5.9197752805        1.5755546757       -1.1364677710
 C         -5.6591278409        2.7558898868       -0.1999300122
 H         -5.9686261913        3.6593482361       -0.7291141331
 H         -6.2913359008        2.6639716074        0.6838503979
 C         -4.1930209709        2.9128074077        0.2273430775
 H         -3.5529079908        2.3391346173       -0.4474296020
 H         -3.8962391114        3.9600132278        0.1333500565
 C         -3.9032098807        2.4875685893        1.6669865679
 H         -2.8322937307        2.6087729599        1.8498442677
 H         -4.4379786608        3.1440133597        2.3570667873
 C         -4.2782098101        1.0340703894        1.9856193694
 H         -5.3608545000        0.9328865391        2.0574503996
 H         -3.8366868499        0.7697431506        2.9496327496
 H         -5.2218079806        1.6156328552       -1.9760209211
 H         -6.9302222806        1.6754688749       -1.5394237510
 H         -6.2142655097       -0.5489978644       -1.1838522489
 H         -6.4323721599        0.1700779971        0.4212178904
 O         -3.8983708095       -1.0285529335       -1.1251995086
 C         -2.6112817893       -1.5426898429       -1.0309769982
 O         -2.2631034091       -2.2122764737       -2.0205817076
 O         -1.7145600396       -0.1323791594        2.1827345703
 C         -0.4700481991       -1.8249553107        0.2847804418
 C          0.4542979005       -1.0305761513       -0.6038672290
 C          0.8910165006       -1.4738842723       -1.8453577086
 C          1.7246437902       -0.6820280227       -2.6168979895
 C          2.1503613898        0.5536139779       -2.1634539607
 C          1.7194926797        1.0032301089       -0.9220999411
 C          0.8757965401        0.2154300393       -0.1556033703
 H          0.5315695300        0.5696165502        0.8077600094
 N          2.2042520493        2.2359674796       -0.4279930624
 S          3.8657030593        2.2408692005       -0.1702054725
 O          4.1056636890        3.2441002316        0.8426965364
 O          4.5374476891        2.4378808595       -1.4293904428
 C          4.2021352200        0.6040260512        0.4550421190
 C          3.8347373502        0.3146279824        1.7541400194
 C          3.9805243108       -0.9820024771        2.2193994206
 C          4.4785767911       -1.9644713177        1.3772426615
 C          4.8470483908       -1.6569328589        0.0768503812
 C          4.7067186103       -0.3610309994       -0.3927951101
 H          4.9786623501       -0.0806776003       -1.3968839904
 H          5.2342441911       -2.4235075294       -0.5745589981
 H          4.5805123315       -2.9760291473        1.7381382825
 H          3.6958759209       -1.2231446862        3.2312473209
 H          3.4502701500        1.1043150428        2.3801377186
 H          1.7326265792        2.5285625402        0.4167964574
 H          2.8166859095        1.1732339176       -2.7418803414
 H          2.0515760903       -1.0349760136       -3.5830634992
 H          0.5621893509       -2.4315279628       -2.2131254877
 H         -0.1960361991       -1.6049361896        1.3258858616
 C         -0.3811046185       -3.3197636409        0.0689608633
 C          0.8672870518       -4.0320963900        0.4946180539
 C         -0.4066756281       -4.2310922598        1.2577157942
 H         -0.9203610377       -5.1765938301        1.1687897752
 H         -0.4949633182       -3.7782682888        2.2344625738
 H          1.2321473920       -4.8430000905       -0.1164011853
 H          1.6448438316       -3.4360728593        0.9486719532
 H         -0.8826422585       -3.6593130620       -0.8281486963
