  62
        -98.94331397
 C         -2.3486480787       -0.5422620139        0.1296602295
 C         -3.3715669680       -0.2845248606        1.0759889256
 C         -4.3202309058        0.7805515627        0.7274567256
 C         -4.1510553304        1.4601860769       -0.4215229675
 C         -5.0678644818        2.5372483386       -0.9230810938
 C         -6.1696180016        1.9558914516       -1.8202308780
 C         -6.8891458445        0.7514824160       -1.2130791292
 H         -6.1848816043       -0.0794324597       -1.1297021195
 H         -7.6642225182        0.4457267247       -1.9192118436
 C         -7.5234848799        1.0164464128        0.1594714735
 H         -8.5292862014        0.5912005777        0.1682975375
 H         -7.6248497390        2.0903778389        0.3197879178
 C         -6.7682515714        0.3976387344        1.3372026881
 H         -6.5821819324       -0.6606776874        1.1375020860
 H         -7.4096154687        0.4556545533        2.2206563039
 C         -5.4334880579        1.0623843859        1.6970132184
 H         -5.1058893535        0.6516457697        2.6564820897
 H         -5.5783222726        2.1380560321        1.8158494314
 H         -5.7182753148        1.6442831592       -2.7650597235
 H         -6.8931704915        2.7448527784       -2.0333249983
 H         -4.4773237653        3.2487180359       -1.5026367055
 H         -5.5112231121        3.0540432010       -0.0741983945
 O         -3.1388915853        1.2071919606       -1.2889027907
 C         -2.2180289661        0.1979765622       -1.0453712125
 O         -1.3589972757        0.0692115855       -1.9381028925
 O         -3.4849535019       -0.9167245812        2.1601049068
 C         -1.3467034283       -1.6426114892        0.4378086396
 C          0.0055205279       -1.0167490080        0.6728765797
 C          0.2456647826       -0.3715611642        1.8834902022
 C          1.4593343111        0.2412248314        2.1290398169
 C          2.4575863787        0.2324861149        1.1698409906
 C          2.2273179731       -0.4043664285       -0.0414058520
 C          1.0110591991       -1.0324794554       -0.2802527213
 H          0.8436513485       -1.5147024727       -1.2304544903
 N          3.2266466883       -0.3951802066       -1.0282648343
 S          4.7867459520       -0.8363605688       -0.6050315469
 O          5.4001534588       -1.2903615252       -1.8340874692
 O          4.7930194171       -1.7704432651        0.4972059866
 C          5.5494131532        0.6946697999       -0.1100129606
 C          5.5045076201        1.7592600481       -0.9886839489
 C          6.1064937448        2.9530007533       -0.6244634510
 C          6.7421575770        3.0607226277        0.6036595579
 C          6.7808337244        1.9818919386        1.4734838565
 C          6.1796404841        0.7851155666        1.1155173762
 H          6.1795252300       -0.0782215314        1.7616800757
 H          7.2753929808        2.0676777734        2.4276904175
 H          7.2100138726        3.9912594244        0.8840060953
 H          6.0775866814        3.7943848994       -1.2979884939
 H          5.0021428050        1.6349082253       -1.9336072381
 H          2.9452044638       -0.8227884082       -1.8982037401
 H          3.4055520897        0.7122420674        1.3514455417
 H          1.6310697711        0.7339794478        3.0739479475
 H         -0.5384265046       -0.3548023424        2.6278596267
 H         -1.6841235039       -2.0829075519        1.3862734669
 C         -1.3508963773       -2.7203457375       -0.6256127346
 C         -0.7155241596       -4.0454883503       -0.3315430956
 C         -2.2065208296       -3.9347817343       -0.4329949368
 H         -2.6981561182       -4.3605451143       -1.2949132427
 H         -2.7867917667       -3.9979015852        0.4758439829
 H         -0.1814091875       -4.5502932676       -1.1223271822
 H         -0.2806276502       -4.1821287671        0.6471597609
 H         -1.2688000462       -2.3294011310       -1.6328799742
