  62
        -98.94142107
 C          1.5443311825        0.6703873514        0.9421989326
 C          2.7887052670        1.1103738299        0.4293427451
 C          3.8442165001        0.0879817698        0.3457860004
 C          3.5794406130       -1.1755092753        0.7222733179
 C          4.5436005471       -2.3215134351        0.6253805240
 C          4.4135090573       -3.0469991563       -0.7213103714
 C          4.4249207481       -2.1127598522       -1.9313269306
 H          4.3582807164       -2.7372840216       -2.8248732642
 H          3.5287479706       -1.4881999217       -1.9086817970
 C          5.6654718720       -1.2139027161       -2.0282562079
 H          6.4638798822       -1.6149284752       -1.4027303168
 H          6.0257990252       -1.2237525291       -3.0591612112
 C          5.4182632621        0.2493094270       -1.6569075462
 H          4.5582551854        0.6291962912       -2.2142833009
 H          6.2911686182        0.8306791458       -1.9658691049
 C          5.1869974563        0.5281152104       -0.1665512527
 H          5.9897671401        0.0782778750        0.4211621065
 H          5.2218744697        1.6120485530       -0.0234622851
 H          5.2312830326       -3.7649987079       -0.8064274648
 H          3.4721125355       -3.6009957235       -0.7265799307
 H          5.5577765233       -1.9474846677        0.7515166545
 H          4.3231190879       -3.0252146872        1.4297648705
 O          2.3682775152       -1.5652639522        1.1950975355
 C          1.3264667258       -0.6615270034        1.3101231221
 O          0.2704671556       -1.1538042930        1.7538138110
 H         -1.8795846121        0.3425981480        0.2760401794
 C         -1.4988781609        1.0009904103       -0.4896545834
 C         -0.3468729484        1.7348498666       -0.2440377377
 C          0.1534589520        2.5559756825       -1.2488052930
 C         -0.4992614914        2.6427578400       -2.4649409437
 C         -1.6626164930        1.9300384275       -2.6972775592
 C         -2.1647561748        1.0985130856       -1.7027001619
 N         -3.3241040251        0.3417201895       -1.9164198820
 S         -4.3915313587        0.0361130153       -0.6665758227
 O         -5.6296547783       -0.3070109821       -1.3339537157
 O         -4.4588417781        1.1439268098        0.2580666321
 C         -3.7464893010       -1.4144147703        0.1360107428
 C         -3.4645718377       -2.5204266173       -0.6404507111
 C         -2.9777546454       -3.6616762969       -0.0248072595
 C         -2.7839281495       -3.6779824910        1.3480555977
 C         -3.0757673228       -2.5608058009        2.1138256778
 C         -3.5635199679       -1.4167224816        1.5038945477
 H         -3.7948250640       -0.5228111955        2.0621876187
 H         -2.9166968875       -2.5726890451        3.1800042880
 H         -2.3986483036       -4.5651497456        1.8254597586
 H         -2.7466521905       -4.5335021884       -0.6158219472
 H         -3.6283507896       -2.4699217686       -1.7041867795
 H         -3.7966845228        0.5137023775       -2.7914424900
 H         -2.1761791078        2.0098643619       -3.6434927191
 H         -0.1025219232        3.2807949290       -3.2403763172
 H          1.0670600019        3.1029589173       -1.0773191855
 C          0.3411267789        1.5891293714        1.0919984393
 H         -0.3525420986        1.0611484738        1.7605550935
 C          0.6720103201        2.9296106397        1.7155709448
 C         -0.4499539719        3.7644775496        2.2530461628
 C          0.5128361331        3.1060495542        3.1941958542
 H          1.2259171699        3.7242344424        3.7187429742
 H          0.1670251182        2.2572266295        3.7664320257
 H         -1.4501620730        3.3621459186        2.1818028491
 H         -0.3994639642        4.8357071750        2.1318062162
 H          1.4999626643        3.4399452424        1.2428029899
 O          3.0327057210        2.2885828079        0.0583182549
