  62
        -98.93736388
 C          1.9373782384        1.3974072712        0.0115074208
 C          2.5755267562        0.6919603312        1.0583296074
 C          3.7764274056       -0.0678774918        0.6876996027
 C          4.1969825540       -0.0639153984       -0.5902782340
 C          5.4316011380       -0.7338327715       -1.1335598949
 C          5.4535101537       -2.2737963510       -1.0831265512
 C          6.1338228056       -2.8567882908        0.1617731375
 H          6.7243370435       -3.7256746480       -0.1357866948
 H          6.8362434512       -2.1208669918        0.5550024078
 C          5.1956314086       -3.3174927831        1.2814160361
 H          4.7630319715       -4.2832490011        1.0097022812
 H          5.7965501392       -3.4684511770        2.1807882136
 C          4.0384438343       -2.3747557306        1.6118807882
 H          3.5735828081       -2.7176634023        2.5386112709
 H          3.2720707887       -2.4504139520        0.8361410328
 C          4.4365878052       -0.8926176477        1.7542558440
 H          4.0859247768       -0.5036332029        2.7123211066
 H          5.5187404557       -0.7794681222        1.7124240625
 H          4.4372864312       -2.6560377800       -1.1780724030
 H          6.0069302342       -2.6100440446       -1.9613849146
 H          5.5008132138       -0.4116927247       -2.1745817596
 H          6.3035487193       -0.3425615236       -0.6044247233
 O          3.5418082094        0.6132416890       -1.5722553693
 C          2.3915657537        1.3421795713       -1.3064098652
 O          1.8860232706        1.8839720421       -2.3065013798
 O          2.1609833663        0.6972784932        2.2495393576
 C          0.6882666778        2.2023613523        0.3240887588
 C         -0.4941053146        1.6036284958       -0.3977572228
 C         -1.3556506718        2.3324968913       -1.2057543668
 C         -2.4072319298        1.7053856947       -1.8531834867
 C         -2.6297936577        0.3498185574       -1.7011036119
 C         -1.7877039058       -0.3845303044       -0.8742192067
 C         -0.7361292485        0.2451686897       -0.2272769123
 H         -0.0778664068       -0.3288784761        0.4131704996
 N         -2.0133746456       -1.7585473431       -0.6946945984
 S         -3.5863052606       -2.2946251254       -0.5097130276
 O         -3.4796095887       -3.5141590599        0.2603794382
 O         -4.2120156556       -2.4218400944       -1.8025126754
 C         -4.4137986694       -1.0283910963        0.4369378224
 C         -3.8965387045       -0.6940472301        1.6728830185
 C         -4.5138448345        0.3033358920        2.4098531636
 C         -5.6332161812        0.9451097474        1.9019091308
 C         -6.1440033028        0.5936551150        0.6623153862
 C         -5.5288594013       -0.4014051354       -0.0805252601
 H         -5.8896777741       -0.7035134883       -1.0502553317
 H         -7.0156382419        1.0926727061        0.2706960711
 H         -6.1092640023        1.7231138134        2.4774912655
 H         -4.1171900330        0.5774627084        3.3742975442
 H         -3.0271567641       -1.2136438199        2.0434289121
 H         -1.3887560314       -2.1991367085       -0.0363402676
 H         -3.4301672182       -0.1543948554       -2.2177719534
 H         -3.0605964204        2.2810445408       -2.4906151167
 H         -1.1973296595        3.3893176833       -1.3410636168
 H          0.5258556218        2.0756990512        1.4047464819
 C          0.9067572300        3.6713194411        0.0337157239
 C          0.1229357734        4.7088561934        0.7788180843
 C          1.5810520106        4.5207361202        1.0677613853
 H          2.2767852105        5.2778422757        0.7384229068
 H          1.8638306835        4.0439305509        1.9950243693
 H         -0.1828380474        5.6005022343        0.2528932527
 H         -0.5872609367        4.3646487510        1.5150554119
 H          1.1536614757        3.8597175523       -1.0047573766
