  62
        -98.93874229
 C         -2.5696411453       -1.3666200657        0.1503899405
 C         -2.5181900649       -0.3098545226       -0.7876434361
 C         -3.5269780235        0.7566256280       -0.6352813899
 C         -4.4261782571        0.6841320406        0.3635040564
 C         -5.5853927459        1.5856498839        0.7345172221
 C         -5.7201660601        2.9776683493        0.1234723004
 C         -4.6471314678        3.9742887106        0.5620420128
 H         -4.7701840619        4.8895474272       -0.0208615143
 H         -4.8146062880        4.2239138443        1.6127134928
 C         -3.2041545128        3.4925561497        0.4310241930
 H         -3.0442969846        2.6263936314        1.0766837448
 H         -2.5493360447        4.2882816812        0.7967462692
 C         -2.7556856882        3.1419812605       -0.9862905782
 H         -2.9276698725        3.9935242377       -1.6479501141
 H         -1.6774206281        2.9572782659       -0.9539643549
 C         -3.4218063819        1.9002267977       -1.6027948571
 H         -4.3949552398        2.1419301819       -2.0232360287
 H         -2.7870368748        1.5516451833       -2.4228873374
 H         -6.6866204700        3.3693815257        0.4520049222
 H         -5.7601962045        2.9109688157       -0.9596954359
 H         -6.4900680919        1.0149440112        0.4976529758
 H         -5.5554172124        1.6750176696        1.8250328897
 O         -4.4362817324       -0.3593299907        1.2443073736
 C         -3.5137485152       -1.3851486408        1.1780522064
 O         -3.6378817738       -2.2449712171        2.0725172815
 H          0.4699358956       -1.6581246660       -1.5160721093
 C          0.7001816747       -1.5366658795       -0.4696954836
 C         -0.2142176709       -1.9419890365        0.4891924533
 C          0.0944410664       -1.7417979487        1.8320348766
 C          1.2906932063       -1.1563625180        2.2010204447
 C          2.1983222066       -0.7452456480        1.2396709713
 C          1.8906916996       -0.9229473043       -0.1016972719
 N          2.7968860754       -0.4914861511       -1.0862742969
 S          3.4224237295        1.0616175728       -0.9519556500
 O          2.5287513739        1.9435551306       -0.2373985304
 O          3.7694990771        1.4491450142       -2.3021191043
 C          4.9231399992        0.8246198471       -0.0210290341
 C          5.8477506414       -0.0836809449       -0.4983835356
 C          7.0233459358       -0.2769079330        0.2090784786
 C          7.2552419419        0.4394157849        1.3739461875
 C          6.3192958957        1.3508431955        1.8379407485
 C          5.1406962460        1.5480383583        1.1350591388
 H          4.3821131996        2.2423227067        1.4604690109
 H          6.5011198270        1.9076075033        2.7431977149
 H          8.1706908947        0.2867518520        1.9234162042
 H          7.7537808274       -0.9844020424       -0.1489010931
 H          5.6308701655       -0.6165254981       -1.4089734532
 H          2.4674283103       -0.6558899978       -2.0271638106
 H          3.1270019793       -0.2753057516        1.5193734037
 H          1.5184403296       -1.0128112188        3.2464169711
 H         -0.6263711121       -2.0389654375        2.5815065197
 C         -1.5642822901       -2.5078171632        0.1222710726
 H         -1.8725555068       -3.1974537985        0.9191353703
 C         -1.5848586808       -3.2497774742       -1.1975011799
 C         -0.9290082291       -4.5936957583       -1.2913782008
 C         -2.4230061089       -4.4843687201       -1.3277827129
 H         -2.9320092996       -4.6639572296       -2.2629430265
 H         -2.9816249660       -4.8024949208       -0.4596110831
 H         -0.4103613478       -4.8530531684       -2.2016155314
 H         -0.4716958057       -4.9867422610       -0.3960826282
 H         -1.5336694155       -2.5972611452       -2.0600277541
 O         -1.6832524559       -0.2500726525       -1.7292960303
