  62
        -98.93636193
 C         -1.7082692124       -0.3339439566       -0.5030490175
 C         -2.9556216902       -0.8454837223       -0.9313179451
 C         -4.0895507796       -0.6259142165       -0.0238127945
 C         -3.8921858695        0.0129527025        1.1435501218
 C         -4.9217110782        0.2728076108        2.2114087206
 C         -6.0754251917        1.2202100878        1.8295879538
 C         -7.3335555155        0.5095157940        1.3155154914
 H         -7.3468414596       -0.5084273061        1.7072135247
 H         -8.2124152682        1.0129063156        1.7236383239
 C         -7.5062581587        0.4740096175       -0.2061055397
 H         -7.8648397022        1.4479971461       -0.5470951094
 H         -8.2812665133       -0.2600407172       -0.4373200030
 C         -6.2516906849        0.1402692240       -1.0135431120
 H         -6.5514307517       -0.0467515756       -2.0466902031
 H         -5.5886962523        1.0084243887       -1.0372117297
 C         -5.4482073104       -1.0646585261       -0.4867264225
 H         -5.9861496043       -1.5644375763        0.3176349100
 H         -5.2862041539       -1.7847513028       -1.2915223788
 H         -5.7226620188        1.9475026610        1.0988434424
 H         -6.3421657998        1.7724513415        2.7321276379
 H         -5.3332719221       -0.6837843427        2.5416539865
 H         -4.3691037670        0.7039397061        3.0487167779
 O         -2.6718342716        0.4800844099        1.5235515942
 C         -1.5555912036        0.3335619231        0.7125047653
 O         -0.5137224712        0.8249432646        1.1819560441
 H          2.2046923536       -0.2585777063       -1.7259650711
 C          1.9438338276       -1.0097366269       -0.9959927232
 C          0.6092637080       -1.2638276383       -0.7111926466
 C          0.3128662734       -2.2536211837        0.2209052283
 C          1.3188114158       -2.9396315402        0.8754139145
 C          2.6482082507       -2.6671845691        0.6039256824
 C          2.9560924268       -1.7036522784       -0.3446947293
 N          4.3165473289       -1.4277608847       -0.6181930589
 S          5.1152224034       -0.5306196685        0.5528359745
 O          6.4743000225       -0.3856683350        0.0833320008
 O          4.9392768030       -1.1751896503        1.8277379304
 C          4.2916518056        1.0505687185        0.5168466299
 C          4.8679275163        2.0931451566       -0.1830788663
 C          4.1755040397        3.2876075553       -0.2951660186
 C          2.9154153015        3.4111121406        0.2722324770
 C          2.3480784455        2.3540101297        0.9670659720
 C          3.0431137892        1.1615391442        1.0950486989
 H          2.6186830657        0.3277049827        1.6304405224
 H          1.3579872747        2.4243605671        1.3892088508
 H          2.3689391332        4.3359560202        0.1712668460
 H          4.6132750140        4.1143542777       -0.8314791297
 H          5.8445209714        1.9486254744       -0.6165813073
 H          4.4585446749       -0.9837187822       -1.5157511054
 H          3.4461611009       -3.1741565801        1.1209760921
 H          1.0653798621       -3.6938136920        1.6053443308
 H         -0.7231477145       -2.4736364601        0.4396112687
 C         -0.5002981079       -0.5088742900       -1.4018593765
 H         -0.8541357260       -1.1196847681       -2.2467514370
 C         -0.0472178060        0.8390481845       -1.9302301103
 C          0.4957626277        0.9752296470       -3.3208809330
 C         -0.8644542424        1.5103852918       -2.9915216754
 H         -1.0026782088        2.5796720494       -2.9385504138
 H         -1.7277288025        0.9765207429       -3.3617466978
 H          1.2930335967        1.6822772874       -3.4958993934
 H          0.5514046103        0.0844649774       -3.9287047180
 H          0.3760852170        1.4654509207       -1.1527109071
 O         -3.1117146232       -1.4668666703       -2.0174824756
