  62
        -98.94000660
 C         -0.4305213872       -2.0412012025        0.3828481150
 C         -1.2586241000       -1.7085036131       -0.7178080830
 C         -2.5568022716       -1.0816660574       -0.3912593647
 C         -2.8688895629       -0.8139731743        0.8871855635
 C         -4.1306522229       -0.2062984410        1.4474030346
 C         -4.7507999813        0.9762311803        0.6919985903
 C         -3.7454830214        1.9049160973       -0.0050973184
 H         -3.9547057566        2.9371368588        0.2824200289
 H         -2.7284187759        1.6798224430        0.3199646478
 C         -3.8163938520        1.8206254701       -1.5314200254
 H         -3.3639543062        2.7211983994       -1.9545029216
 H         -4.8666818367        1.8060274204       -1.8334057909
 C         -3.0955844551        0.6275286847       -2.1592118983
 H         -3.3398816179        0.6134314781       -3.2249238075
 H         -2.0144902732        0.7739865757       -2.0897012196
 C         -3.4353272303       -0.7480044794       -1.5625159812
 H         -4.4896111651       -0.8126473826       -1.3010066782
 H         -3.2196569892       -1.5016883777       -2.3253046978
 H         -5.3278547873        1.5477050681        1.4208583300
 H         -5.4593137278        0.6055652276       -0.0474662485
 H         -4.8766403643       -1.0013100909        1.5390218574
 H         -3.8689344808        0.1056429131        2.4613066215
 O         -2.0260607760       -1.1182558962        1.9144649494
 C         -0.8114169115       -1.7429226841        1.6934118833
 O         -0.1655158997       -1.9788330133        2.7337203516
 H          1.0000946999       -0.4517400247       -1.2916897502
 C          1.8879062933       -0.5633511824       -0.6887095730
 C          2.0295083125       -1.6590629360        0.1502537995
 C          3.1994427593       -1.7868768282        0.8904394420
 C          4.2018197441       -0.8392690634        0.7944351450
 C          4.0438738708        0.2677275700       -0.0195261250
 C          2.8767002035        0.4080481285       -0.7609198505
 N          2.6766495988        1.5368688638       -1.5763929021
 S          1.2384522725        2.3802138840       -1.4168298941
 O          0.1607997350        1.6563874706       -2.0344210913
 O          1.5265339524        3.6878861617       -1.9660893070
 C          0.9879037191        2.5050744279        0.3435667203
 C          0.1744110723        1.5930113469        0.9833946364
 C          0.0469396599        1.6570657859        2.3619355710
 C          0.7327888184        2.6297085106        3.0725747498
 C          1.5421697270        3.5441814106        2.4150935252
 C          1.6771665950        3.4801066867        1.0380776836
 H          2.2891883243        4.1759724079        0.4873205437
 H          2.0703228449        4.3007880794        2.9725775636
 H          0.6330905179        2.6711677458        4.1456791899
 H         -0.5729306572        0.9351273502        2.8708832343
 H         -0.3434369713        0.8462502086        0.4008843994
 H          3.4560563520        2.1798676708       -1.5836235599
 H          4.8153961626        1.0198585910       -0.0826953057
 H          5.1065976145       -0.9530174225        1.3713496059
 H          3.3142107343       -2.6306671161        1.5539774258
 C          0.9354121275       -2.6962989441        0.2608123042
 H          1.0912149330       -3.2356888363        1.2060907802
 C          1.0507568596       -3.6923512423       -0.8764208203
 C          2.0291996484       -4.8210860314       -0.7637978100
 C          0.5577296691       -5.0928014415       -0.6791470857
 H          0.0696797200       -5.5862231744       -1.5059670260
 H          0.1398566146       -5.3431590412        0.2853981212
 H          2.5593327437       -5.1303185164       -1.6513681661
 H          2.6085854153       -4.8976508608        0.1435846359
 H          0.9039209270       -3.2473531874       -1.8517258190
 O         -0.9663336241       -1.9268999867       -1.9221585911
