  62
        -98.94487046
 C          2.6467681048        0.3021390880       -0.0129786993
 C          2.4469676186        1.4133845911       -0.8650082528
 C          1.7842893473        2.5728404231       -0.2606223553
 C          1.4139397227        2.5292001057        1.0324163102
 C          0.6850063518        3.6129046690        1.7786877484
 C         -0.8354176691        3.5691876947        1.5667182667
 C         -1.3149030517        4.0821909141        0.2074186558
 H         -2.3928079449        4.2376198491        0.2871090633
 H         -0.8594677162        5.0518838098        0.0018987808
 C         -1.0401355128        3.1207502614       -0.9576343893
 H         -0.8456008035        2.1223762681       -0.5564407245
 H         -1.9309721793        3.0486496317       -1.5874332735
 C          0.1156674090        3.5368222476       -1.8684079805
 H         -0.1416937593        4.4656164845       -2.3829566261
 H          0.2529175347        2.7598393374       -2.6252155612
 C          1.4555775387        3.7356986545       -1.1488049756
 H          2.2414069605        3.8071458955       -1.9051895012
 H          1.4397144992        4.6598232255       -0.5718847173
 H         -1.1725372287        2.5380125332        1.7045131729
 H         -1.2933210517        4.1809137454        2.3477514773
 H          0.8910752776        3.4538909235        2.8392333427
 H          1.0715825193        4.5909913949        1.4901055233
 O          1.6734401948        1.4631206137        1.8338020712
 C          2.2409758386        0.3076544339        1.3228353447
 O          2.3512914319       -0.6201085591        2.1482503808
 O          2.7857356081        1.4253438212       -2.0806380822
 C          3.1646163757       -0.9972537009       -0.6081965498
 C          2.0579955191       -2.0170452307       -0.4833137203
 C          2.2183174462       -3.2893349276        0.0477893464
 C          1.1214668654       -4.1135469171        0.2418399432
 C         -0.1553669367       -3.6860509879       -0.0751413531
 C         -0.3183700977       -2.4290022052       -0.6379022294
 C          0.7802875663       -1.6193868486       -0.8584535536
 H          0.6359371497       -0.6318260035       -1.2810361239
 N         -1.6331198144       -1.9395827671       -0.8979095590
 S         -2.1913573304       -1.1386052306        0.4936518497
 O         -1.4353224500        0.0759482982        0.7114439895
 O         -2.2068097807       -2.0935468132        1.5720622963
 C         -3.8619204008       -0.7386451715        0.0148402777
 C         -4.1945280433        0.5648026319       -0.2975760595
 C         -5.4909765543        0.8470295123       -0.6998552351
 C         -6.4244721688       -0.1743953845       -0.7858918355
 C         -6.0742895849       -1.4789003531       -0.4692969182
 C         -4.7808625782       -1.7673544079       -0.0652356993
 H         -4.4630320215       -2.7624635394        0.1973732292
 H         -6.8035239044       -2.2699815178       -0.5364898060
 H         -7.4319870837        0.0480184536       -1.1001251479
 H         -5.7656537061        1.8604957710       -0.9444543649
 H         -3.4362350656        1.3268900927       -0.2118038567
 H         -1.6107830123       -1.2456601884       -1.6369128644
 H         -1.0216427931       -4.2952778348        0.1230986797
 H          1.2625826171       -5.0934385429        0.6721263153
 H          3.2002647936       -3.6270855829        0.3372150358
 H          3.3350512429       -0.7871861733       -1.6746498172
 C          4.4694030270       -1.4268198053        0.0235618038
 C          5.4299984938       -2.2837510784       -0.7446034244
 C          5.7503166049       -0.8425933392       -0.4894971493
 H          6.5267576190       -0.6021160400        0.2208946648
 H          5.6825612813       -0.1479484123       -1.3139339148
 H          5.9914192853       -3.0345953760       -0.2096525835
 H          5.1515517199       -2.5706240607       -1.7472905165
 H          4.3812344682       -1.5820928140        1.0928430656
