  62
        -98.94724882
 C         -0.9333832804       -1.5598350927       -0.8597374514
 C         -2.2343515062       -1.5450066984       -0.2930930293
 C         -3.0436596580       -0.3491090543       -0.5419298639
 C         -2.5361402532        0.6528480451       -1.2811018797
 C         -3.2163220699        1.9567381169       -1.5976979481
 C         -3.0713243893        3.0015912610       -0.4823916923
 C         -3.9381303870        2.7540797191        0.7528345111
 H         -4.9686326295        2.5701283753        0.4456637847
 H         -3.9302028479        3.6757652443        1.3384098180
 C         -3.4481931325        1.6047995888        1.6452199248
 H         -3.4795472101        1.9211297028        2.6910976985
 H         -2.4012996914        1.3852954219        1.4182980658
 C         -4.2709530668        0.3199364541        1.5402560521
 H         -5.2788865353        0.4998479098        1.9225736860
 H         -3.7994667313       -0.4365553513        2.1729741021
 C         -4.3838696342       -0.2530406267        0.1219482494
 H         -5.0614814351        0.3556964361       -0.4766635585
 H         -4.7918476697       -1.2645092810        0.1948909943
 H         -3.3403575045        3.9735724764       -0.9033183919
 H         -2.0231204591        3.0463524735       -0.1739927911
 H         -4.2733282608        1.7850383116       -1.8031577006
 H         -2.7439692571        2.3455496055       -2.5024919193
 O         -1.3083089053        0.5832725350       -1.8517520659
 C         -0.4609756353       -0.4939992857       -1.6261758892
 O          0.6509022829       -0.3639928082       -2.1759136623
 O         -2.6974962717       -2.4960608414        0.3941106950
 C         -0.0471978449       -2.7319601220       -0.4721902864
 C          0.7012347447       -2.3772019666        0.7930640745
 C          0.7465321877       -3.2396682251        1.8816689607
 C          1.3746397475       -2.8572406963        3.0543628988
 C          1.9308263729       -1.5963406038        3.1787554766
 C          1.8911782706       -0.7288027664        2.0935498469
 C          1.3198701155       -1.1408603210        0.9007813761
 H          1.3177260717       -0.4644672297        0.0621451418
 N          2.4046106983        0.5747813092        2.1666092664
 S          1.5701816287        1.8046788314        1.3841821953
 O          1.9367720912        3.0034736454        2.1143088362
 O          0.1529936031        1.5334459807        1.3112546280
 C          2.2905388047        1.9085635579       -0.2381202475
 C          1.5286132401        2.4369000456       -1.2593830087
 C          2.0955551780        2.5818776564       -2.5146339481
 C          3.4099330254        2.1985375557       -2.7244555958
 C          4.1632327717        1.6710265258       -1.6872145617
 C          3.6029225388        1.5263527855       -0.4286910808
 H          4.1568615346        1.1120619015        0.3974774621
 H          5.1841133619        1.3677583548       -1.8563940264
 H          3.8467431589        2.3055593192       -3.7049979209
 H          1.5041573923        2.9809235275       -3.3230642051
 H          0.5020760910        2.7039505350       -1.0618942680
 H          2.7231692902        0.8633115617        3.0804021235
 H          2.3811329533       -1.2812397324        4.1076880153
 H          1.4045424142       -3.5365463330        3.8927589149
 H          0.2656246559       -4.2041620555        1.8147647919
 H         -0.7333576220       -3.5562656849       -0.2328375386
 C          0.9077228368       -3.1980689423       -1.5516796265
 C          1.4101597094       -4.6094506577       -1.5200624588
 C          0.4345464148       -4.1843460921       -2.5752551993
 H          0.7817219679       -4.0751562899       -3.5913608640
 H         -0.5850346621       -4.5332318207       -2.4980623386
 H          2.4322887548       -4.7967377413       -1.8104284750
 H          1.0519425157       -5.2530518834       -0.7311107816
 H          1.5889990363       -2.4255532710       -1.8826777154
