  62
        -98.93297139
 C         -2.4769189306       -0.8857952801        0.2319036960
 C         -3.0120007784        0.1682237049        1.0097190495
 C         -3.2110855663        1.4701284060        0.3443030531
 C         -2.8420509135        1.5975128980       -0.9436917091
 C         -2.8771919167        2.8297253853       -1.8078617362
 C         -1.7365246627        3.8044850521       -1.4761516896
 C         -1.5271037214        4.0631782870        0.0134897615
 H         -1.2979416022        3.1174244062        0.5085930212
 H         -0.6438155578        4.6992296337        0.1158397430
 C         -2.6879390142        4.7507663784        0.7291138814
 H         -2.3560016986        4.9657554616        1.7479891992
 H         -2.8943103860        5.7045801998        0.2389408994
 C         -3.9923008109        3.9540871982        0.8148455852
 H         -4.5430184642        3.9979336499       -0.1208957784
 H         -4.6202747692        4.4395865134        1.5674388921
 C         -3.8260996599        2.5038903718        1.2574484762
 H         -4.8119621714        2.1069104461        1.5284228252
 H         -3.2410731741        2.4752755000        2.1837651665
 H         -1.9284717283        4.7479347522       -1.9903394607
 H         -0.8075471121        3.3838977074       -1.8711152299
 H         -2.7554820960        2.4923441984       -2.8396134752
 H         -3.8424179157        3.3207748115       -1.7290439526
 O         -2.3069197770        0.5615130240       -1.6501476819
 C         -2.0889221859       -0.6863956498       -1.0942844425
 O         -1.5637223288       -1.5029968644       -1.8744126369
 O         -3.2983038852        0.0378892578        2.2315268170
 C         -2.1988466544       -2.2084648634        0.9266748288
 C         -0.7751401666       -2.6136473270        0.6377859684
 C         -0.4058981589       -3.8127709475        0.0448708432
 C          0.9220815701       -4.0685691506       -0.2537288358
 C          1.9062988738       -3.1390030211        0.0273187580
 C          1.5472949166       -1.9432697931        0.6325709900
 C          0.2225663612       -1.6958214322        0.9447235255
 H         -0.0524049063       -0.7505338359        1.3998864835
 N          2.5489682999       -0.9677623594        0.8902192373
 S          2.9247291993       -0.0449229355       -0.4814082161
 O          1.9685489398        1.0348454869       -0.6230536539
 O          3.0797155047       -0.9310036622       -1.6052967604
 C          4.5131762049        0.6163808169       -0.0131619707
 C          4.6216402547        1.9316783390        0.3931799660
 C          5.8625480750        2.4133829598        0.7809080728
 C          6.9659093611        1.5743204488        0.7596720718
 C          6.8405596120        0.2548175011        0.3502951502
 C          5.6034387660       -0.2316755652       -0.0396806126
 H          5.4584841097       -1.2457164746       -0.3730327320
 H          7.7011473010       -0.3942811046        0.3339111300
 H          7.9299454124        1.9515541801        1.0622489936
 H          5.9624879476        3.4391500539        1.0975937715
 H          3.7375859324        2.5490761919        0.3876424368
 H          2.2393015867       -0.3131194149        1.5986660513
 H          2.9369054017       -3.3125452380       -0.2342976535
 H          1.1904187184       -5.0001997479       -0.7284520770
 H         -1.1620259237       -4.5347543624       -0.2168593680
 H         -2.2744444258       -1.9693913975        2.0013106012
 C         -3.2172752467       -3.3042927454        0.6579392849
 C         -4.6279271585       -2.9682080799        0.2792162692
 C         -3.7194006004       -3.6188794840       -0.7181614160
 H         -3.8980218536       -4.6535937932       -0.9722655619
 H         -3.3387217990       -3.0275034796       -1.5357349629
 H         -5.4280102550       -3.5526171064        0.7080312074
 H         -4.8725021126       -1.9248444100        0.1413991372
 H         -3.0903644655       -4.1457789751        1.3322465038
