  62
        -98.94043279
 C         -1.8319283879        0.2538506933        0.9585791773
 C         -3.1991957691        0.5126688470        1.2317857661
 C         -4.1760481478       -0.2678452582        0.4609100609
 C         -3.7356549224       -1.1508463425       -0.4534879878
 C         -4.6174068467       -1.9788467909       -1.3416330728
 C         -4.9003922430       -1.2616271451       -2.6688751501
 C         -5.3599205375        0.1868360681       -2.5023690264
 H         -4.5396928731        0.7755265476       -2.0848464106
 H         -5.5608118450        0.5811471380       -3.5009204862
 C         -6.6066216278        0.3608108745       -1.6236294688
 H         -7.1315347035       -0.5908656828       -1.5324466272
 H         -7.2865139079        1.0595816316       -2.1156552167
 C         -6.3267967017        0.9209876545       -0.2276740602
 H         -5.7206658141        1.8267763239       -0.3109989055
 H         -7.2817155625        1.2079473948        0.2207445456
 C         -5.6323739711       -0.0357742396        0.7497213392
 H         -5.6727627031        0.4193537392        1.7437945375
 H         -6.1742462842       -0.9832860285        0.7838094941
 H         -5.6610754769       -1.8261647749       -3.2111560211
 H         -3.9856034728       -1.2635492055       -3.2661769046
 H         -4.1082303159       -2.9212628491       -1.5503799457
 H         -5.5512364540       -2.1888433425       -0.8236457214
 O         -2.4195753729       -1.3541741031       -0.7076267983
 C         -1.4324618693       -0.6518854043       -0.0252254882
 O         -0.2770202162       -0.9298349329       -0.3903587805
 H          1.9582318665        0.7696260407        1.8233081339
 C          1.6144373177        1.3641460125        0.9912932704
 C          0.2589915580        1.5891016847        0.8099001047
 C         -0.1441089026        2.3494771101       -0.2854734867
 C          0.7786112874        2.8475614691       -1.1839676386
 C          2.1313936473        2.6157639948       -1.0023178744
 C          2.5458782509        1.8702619874        0.0914153418
 N          3.9259200705        1.6520620967        0.2890147975
 S          4.7638583475        0.7095989429       -0.8125431077
 O          6.1601427582        0.8515152833       -0.4655139478
 O          4.3928945898        1.1062109693       -2.1462397305
 C          4.2497106544       -0.9686845362       -0.4883639222
 C          2.9451313875       -1.3312661600       -0.7559281122
 C          2.5356691541       -2.6211024109       -0.4571891598
 C          3.4314840988       -3.5231542394        0.0948808930
 C          4.7404926999       -3.1440983284        0.3540635525
 C          5.1542379333       -1.8537086776        0.0665654863
 H          6.1593010928       -1.5131083421        0.2566509967
 H          5.4358918573       -3.8480681460        0.7824521147
 H          3.1061472006       -4.5256185419        0.3254554515
 H          1.5090349886       -2.8906258366       -0.6472721788
 H          2.2508650932       -0.6206075181       -1.1742545515
 H          4.1523398739        1.3409496680        1.2237272533
 H          2.8643648619        2.9831624637       -1.7014219608
 H          0.4450750698        3.4255069075       -2.0329880641
 H         -1.2003684834        2.5332371563       -0.4315067349
 C         -0.7980061697        1.0457328322        1.7388428518
 H         -1.3622546733        1.9029666519        2.1436471908
 C         -0.2242887225        0.3026744421        2.9372009202
 C         -0.9630558172       -0.8344595483        3.5752725026
 C          0.3078889161       -1.0944853494        2.8264663534
 H          1.1903106297       -1.3559100158        3.3926286256
 H          0.2505757107       -1.5725485520        1.8614582807
 H         -0.9532006761       -0.9095952719        4.6523667395
 H         -1.8953350348       -1.1439272554        3.1256398258
 H          0.2980228611        0.9704817363        3.6158446762
 O         -3.5836764972        1.3612259565        2.0803036405
