  62
        -98.93901255
 C         -0.7138757320       -1.6853323744        0.5828338169
 C         -1.6214085046       -1.5247359320       -0.4916788873
 C         -2.8062683850       -0.6974470289       -0.2154428695
 C         -2.9623505497       -0.1362593681        0.9960867257
 C         -4.1527246079        0.6479844383        1.4861388971
 C         -4.4552726391        1.9828013185        0.7792752230
 C         -5.4423643572        1.8767340796       -0.3890388941
 H         -6.0654033128        0.9930852217       -0.2462164138
 H         -6.1120570946        2.7388021857       -0.3623367965
 C         -4.8130045664        1.8414346590       -1.7847590746
 H         -4.5024233705        2.8512303563       -2.0619264360
 H         -5.5859686330        1.5315937214       -2.4913516999
 C         -3.5997583740        0.9247787860       -1.9448766781
 H         -2.7219564892        1.3832828566       -1.4844506119
 H         -3.3783284878        0.8354551077       -3.0100430031
 C         -3.7769149731       -0.4805887908       -1.3395525360
 H         -4.7996455176       -0.6266246590       -0.9946430502
 H         -3.5560393113       -1.2414710997       -2.0907246607
 H         -4.8886027657        2.6436480380        1.5319484200
 H         -3.5249240818        2.4373013971        0.4445900140
 H         -5.0343300863        0.0046457496        1.4304565477
 H         -3.9542361043        0.8429578171        2.5425279641
 O         -2.0352719125       -0.2732347206        1.9862707422
 C         -0.8987834964       -1.0422449555        1.8073906300
 O         -0.1446433394       -1.0790406022        2.8018246969
 O         -1.4767387033       -2.0629819464       -1.6189058228
 C          0.5108555800       -2.5756451588        0.4449368674
 C          1.4689238603       -1.9728542981       -0.5533568970
 C          1.6033045909       -2.4335867283       -1.8565986171
 C          2.4863175089       -1.8173665112       -2.7258354307
 C          3.2505252696       -0.7406833333       -2.3159140512
 C          3.1300851481       -0.2770218935       -1.0096889197
 C          2.2402913004       -0.8917134782       -0.1423387811
 H          2.1569629648       -0.5371260355        0.8745486434
 N          3.9252195517        0.7866607604       -0.5634776643
 S          3.4420025832        1.8188743724        0.6486997506
 O          4.3331074984        2.9516982357        0.5137024383
 O          3.4669403382        1.1475723440        1.9228787758
 C          1.7863564461        2.3343609170        0.2341493022
 C          1.6112156062        3.0639806723       -0.9260860154
 C          0.3436941203        3.5162109523       -1.2507767600
 C         -0.7223465398        3.2408635190       -0.4076913190
 C         -0.5311495787        2.5059364014        0.7513316118
 C          0.7340082748        2.0416590786        1.0755226095
 H          0.9106846643        1.4597931115        1.9674460692
 H         -1.3544657594        2.2858615201        1.4127190384
 H         -1.7057884945        3.6113460232       -0.6537652147
 H          0.1890399221        4.0863032167       -2.1525571017
 H          2.4672902081        3.2825821846       -1.5432129178
 H          4.4692392239        1.2505798410       -1.2749086576
 H          3.9427869140       -0.2656833021       -2.9938693733
 H          2.5795377231       -2.1807476315       -3.7378836276
 H          1.0058916042       -3.2630858975       -2.1947747383
 H          1.0027989448       -2.5605897490        1.4277083928
 C          0.1133933462       -4.0017637742        0.1231331659
 C          1.0990797290       -5.1080843007        0.3431919282
 C         -0.0906072892       -4.9732489170        1.2445526837
 H         -0.8873503193       -5.6971970808        1.1608126202
 H          0.0672973572       -4.6142261569        2.2515245206
 H          1.1214273251       -5.9279701005       -0.3581893780
 H          2.0672941730       -4.8403285582        0.7390788581
 H         -0.5573563195       -4.0782705489       -0.7234171980
