  62
        -98.93457942
 C         -2.2291413466       -1.2862329658        0.6820882315
 C         -2.7463184682       -0.4611638048       -0.3458133640
 C         -2.9938293800        0.9417258796        0.0220583724
 C         -2.7437009291        1.3655147853        1.2722608542
 C         -2.9067222232        2.7685561364        1.7898617519
 C         -1.9280018636        3.7957198586        1.1853084566
 C         -2.5039927270        4.5942071026        0.0089320746
 H         -3.5923587597        4.5980473681        0.0850340614
 H         -2.1787633209        5.6328381761        0.0969953910
 C         -2.0926117745        4.1162210932       -1.3871305001
 H         -2.7564989490        4.5917966693       -2.1131337572
 H         -1.0748832218        4.4553218429       -1.5960984297
 C         -2.1124998986        2.6035219651       -1.6118908853
 H         -1.2331519217        2.1564853996       -1.1388908054
 H         -2.0086477033        2.4195567614       -2.6842358497
 C         -3.3705228399        1.8838316668       -1.0843637609
 H         -4.1132039918        2.6037638853       -0.7446368621
 H         -3.8112977352        1.2785240186       -1.8794823939
 H         -1.6656855618        4.4965795029        1.9796042549
 H         -1.0105587106        3.2853254712        0.8873265615
 H         -3.9347046739        3.0968263308        1.6223277753
 H         -2.7433329459        2.7071717767        2.8674921124
 O         -2.3075333400        0.5266830838        2.2496097508
 C         -1.9868376604       -0.7874374526        1.9651164150
 O         -1.5148435180       -1.4199421181        2.9320300174
 H         -0.5634992436       -1.0749892725       -1.3507274854
 C          0.1693091532       -1.6533572939       -0.8063346466
 C         -0.2510973125       -2.5908169825        0.1279087190
 C          0.7135978195       -3.3210845185        0.8100083230
 C          2.0612946500       -3.1022334822        0.5759903901
 C          2.4733190150       -2.1300365037       -0.3191442702
 C          1.5140247479       -1.4026310309       -1.0101049679
 N          1.9222774549       -0.3264585534       -1.8494702438
 S          1.9712115693        1.1082193195       -0.9544492689
 O          0.8403904560        1.2215278068       -0.0581859889
 O          2.1220330525        2.1739084653       -1.9208096569
 C          3.4722285031        0.9012924624       -0.0268044483
 C          4.6780763572        1.1081647276       -0.6680361864
 C          5.8533194871        0.8937075785        0.0338949482
 C          5.8015251888        0.4735052911        1.3548843346
 C          4.5823544219        0.2705940292        1.9837404605
 C          3.4026547258        0.4848391135        1.2877802616
 H          2.4322057689        0.3356468700        1.7358883435
 H          4.5421789468       -0.0574898505        3.0099947009
 H          6.7167978090        0.3025942322        1.8992857316
 H          6.8035289437        1.0513714057       -0.4502216176
 H          4.6666706989        1.4367568573       -1.6939621026
 H          1.2832067491       -0.1833560497       -2.6214815838
 H          3.5190345537       -1.9272721537       -0.4837941677
 H          2.7982506536       -3.6762358163        1.1159666577
 H          0.4012652689       -4.0432008189        1.5499962239
 C         -1.7214303425       -2.7023664388        0.4471429516
 H         -1.8144287041       -3.2189126551        1.4154147583
 C         -2.5158045715       -3.4953582494       -0.5773259659
 C         -1.9770384622       -3.8628555313       -1.9243659268
 C         -2.1319217840       -4.9157706819       -0.8710465593
 H         -2.9146460053       -5.6504079275       -0.9821864819
 H         -1.2324536219       -5.2919760415       -0.4074423646
 H         -2.6637235139       -3.8493710784       -2.7568370221
 H         -0.9794816452       -3.5413044412       -2.1809716603
 H         -3.5764527853       -3.2755970876       -0.5283397485
 O         -2.9801286973       -0.8461071043       -1.5221726749
