  62
        -98.94447491
 C          1.8465920444       -1.0661244735        0.1636018679
 C          2.3675760798        0.0534997428        0.8558022974
 C          3.8301130965        0.1862514180        0.8366490171
 C          4.5799176108       -0.7419052956        0.2149052282
 C          6.0823003550       -0.7562378827        0.1314341422
 C          6.6534886408        0.1078151683       -1.0013243189
 C          6.5659928481        1.6178256124       -0.7757250626
 H          6.9913723320        1.8640771340        0.1977053430
 H          7.1924796979        2.0919460673       -1.5339486298
 C          5.1459865761        2.1920107577       -0.8793940603
 H          5.1622075598        3.0962314768       -1.4919786517
 H          4.4979977767        1.4737769837       -1.3868458231
 C          4.5130366486        2.5650412710        0.4612913870
 H          5.0765458236        3.3816287084        0.9182255045
 H          3.4961940709        2.9201862877        0.2739436801
 C          4.4313438550        1.4070595656        1.4645565907
 H          3.7800200848        1.7119802599        2.2874533478
 H          5.4202218441        1.1842455455        1.8649604198
 H          7.7063096170       -0.1601828288       -1.1156798314
 H          6.1416443972       -0.1520083356       -1.9307772421
 H          6.5050314622       -0.4354488426        1.0838697127
 H          6.3735414505       -1.7936606832       -0.0467079970
 O          4.0394787220       -1.8193136470       -0.4146224415
 C          2.6663367922       -1.9956389616       -0.4759062408
 O          2.3045649766       -3.0020734974       -1.1186470838
 O          1.6544367733        0.8973125206        1.4585392269
 C          0.3452254640       -1.2861590809        0.1054618807
 C         -0.3299923823       -0.0663647056       -0.4714906876
 C          0.1673943398        0.4735302152       -1.6558810204
 C         -0.3965694409        1.6048166226       -2.2103239742
 C         -1.4814457214        2.2149399230       -1.6046361229
 C         -1.9947951678        1.6771817129       -0.4316614451
 C         -1.4260510331        0.5372545285        0.1236729754
 H         -1.8356093720        0.1538246152        1.0428980302
 N         -3.0914523655        2.2763552000        0.2036543399
 S         -4.2617642262        1.3351121527        0.9275241758
 O         -5.4382673596        2.1782637888        0.9500114683
 O         -3.8111569959        0.8554386453        2.2092611897
 C         -4.5197401018       -0.0377916745       -0.1836940024
 C         -4.7792588456        0.2268178050       -1.5142502236
 C         -4.9786545228       -0.8341722484       -2.3820185357
 C         -4.9203226978       -2.1358766143       -1.9076855557
 C         -4.6679483928       -2.3848334301       -0.5679945194
 C         -4.4637882409       -1.3267299963        0.3034928272
 H         -4.2582835984       -1.4761086028        1.3507767515
 H         -4.6265583575       -3.3971709587       -0.1985858442
 H         -5.0742008829       -2.9607468835       -2.5853176743
 H         -5.1777344511       -0.6441241829       -3.4243153357
 H         -4.8284431067        1.2482827103       -1.8540711027
 H         -3.4856035561        3.0702192826       -0.2783358311
 H         -1.9179599595        3.1061690577       -2.0290711604
 H          0.0093517771        2.0168297230       -3.1219075814
 H          1.0166905621       -0.0024537652       -2.1274904281
 H          0.1863288320       -2.1268660391       -0.5856876262
 C         -0.1694204511       -1.6780732201        1.4745408679
 C         -1.3671033601       -2.5675881514        1.6075900387
 C         -0.0022251406       -3.0957500683        1.9296115748
 H          0.2521238160       -3.2797197079        2.9627119251
 H          0.4580510841       -3.7855229287        1.2369405885
 H         -2.0506096474       -2.3854165053        2.4235324311
 H         -1.8396894496       -2.9061407893        0.6981203032
 H         -0.0280381132       -0.8969505626        2.2133238386
