  62
        -98.93670582
 C          2.4024373645        1.0461418064       -0.1690239807
 C          2.5387423932       -0.2091801646        0.4733468132
 C          3.9127806141       -0.5946114707        0.8367498978
 C          4.9266846255        0.2560191390        0.5988375496
 C          6.3744089464       -0.0326307488        0.8685601638
 C          7.0536656909       -0.6558516595       -0.3589277817
 C          6.2801833112       -1.8273608479       -0.9641662366
 H          5.3373400862       -1.4588408773       -1.3752006581
 H          6.8682648108       -2.2070101325       -1.8025078798
 C          5.9908665277       -2.9715455664        0.0174779892
 H          6.2092391784       -3.9203036877       -0.4771182286
 H          6.6534968782       -2.8957719897        0.8802954825
 C          4.5401962623       -3.0440680805        0.4982299253
 H          4.3973155535       -4.0024381883        1.0044942776
 H          3.8674017074       -3.0271301344       -0.3632388609
 C          4.1037441482       -1.9427369675        1.4728861903
 H          3.1262502260       -2.2228966942        1.8765983146
 H          4.8131476731       -1.8815878340        2.3005832588
 H          7.1604729954        0.1159196244       -1.1247621126
 H          8.0523322838       -0.9877298241       -0.0694840838
 H          6.8726575172        0.9076553308        1.1103757126
 H          6.4528196180       -0.7044086333        1.7210252765
 O          4.7479785966        1.4790552322        0.0365702959
 C          3.4913700209        1.9000262248       -0.3639271434
 O          3.4705876260        3.0433620654       -0.8621324518
 H         -1.3393495567        0.1503534833       -0.7298923795
 C         -1.1551288815        0.6257508743        0.2191222248
 C          0.0072872811        1.3448068001        0.4414844580
 C          0.2087785103        1.9129868332        1.6976504529
 C         -0.7262331645        1.7598108293        2.7018407024
 C         -1.8975763563        1.0602461897        2.4683259624
 C         -2.1068287241        0.4878855657        1.2204090926
 N         -3.2755900694       -0.2415698014        0.9485716919
 S         -3.9576973192       -0.0863249488       -0.5879697386
 O         -3.3776685308       -1.0729264847       -1.4641163424
 O         -3.8711084626        1.2876702652       -1.0296704300
 C         -5.6551296411       -0.5132475832       -0.2417581357
 C         -6.0205391848       -1.8460194451       -0.2195075322
 C         -7.3330673298       -2.1754617792        0.0797404504
 C         -8.2528842276       -1.1733123396        0.3508285292
 C         -7.8718667161        0.1598761093        0.3232799131
 C         -6.5607078618        0.4963261238        0.0257565564
 H         -6.2214361525        1.5188740958       -0.0170646496
 H         -8.5898361408        0.9368432208        0.5309433614
 H         -9.2738921513       -1.4327499891        0.5821279476
 H         -7.6337376962       -3.2105630492        0.0992830722
 H         -5.2736312143       -2.5891355412       -0.4456867275
 H         -3.9683260943       -0.1675705554        1.6807449895
 H         -2.6351227978        0.9488162184        3.2487232904
 H         -0.5497187227        2.2000243916        3.6719379006
 H          1.1183901219        2.4717551147        1.8754599595
 C          1.0509653490        1.5658619077       -0.6257809757
 H          1.1863947856        2.6560312257       -0.7314785735
 C          0.6205509933        1.0513829869       -1.9915750091
 C          1.6289044114        0.6710043115       -3.0330801819
 C          0.7805058451       -0.3833079474       -2.3911398592
 H         -0.0071646840       -0.8413327764       -2.9723667932
 H          1.2353778375       -1.0509861285       -1.6766898117
 H          2.6731665631        0.7247925324       -2.7605287586
 H          1.4309524459        0.9396860917       -4.0598383847
 H         -0.2724748217        1.5566218633       -2.3501759997
 O          1.5769515186       -0.9763860567        0.7360876485
