  62
        -98.93852405
 C          2.3214527967        0.7212530263       -0.4015034525
 C          1.5229075232       -0.2659124822       -1.0335271808
 C          1.8823636522       -1.6695119190       -0.7743831633
 C          2.9135332273       -1.9573967659        0.0359875000
 C          3.3483012217       -3.3381897694        0.4300768257
 C          2.6578238154       -3.7933675575        1.7229356123
 C          1.1406004104       -3.6011588039        1.7210960925
 H          0.7615430080       -4.0046364400        2.6631826590
 H          0.9054571108       -2.5334556929        1.7200242144
 C          0.4135341904       -4.2738521710        0.5483953584
 H          1.0526179215       -5.0370611561        0.1015102273
 H         -0.4756145445       -4.7771959663        0.9341239112
 C         -0.0597766656       -3.3002603496       -0.5325320949
 H         -0.5876364442       -2.4708846061       -0.0547366161
 H         -0.7742970268       -3.8218988692       -1.1753878004
 C          1.0414349674       -2.7265620121       -1.4341551984
 H          1.6689351291       -3.5370769057       -1.8111153436
 H          0.5572089142       -2.2424643867       -2.2869316848
 H          2.8907203548       -4.8478563134        1.8842968621
 H          3.0724198379       -3.2222343333        2.5570548197
 H          3.1205342867       -4.0302846913       -0.3783658664
 H          4.4277513767       -3.3245871170        0.5918712398
 O          3.6641109240       -0.9945344478        0.6272326815
 C          3.3792430034        0.3437729835        0.4398563053
 O          4.1449252215        1.1048801561        1.0692360331
 H         -0.3733975850        1.1222800148       -0.2051650819
 C         -0.2584430168        2.0236685751        0.3663557875
 C          0.9378247907        2.7214324595        0.3263808663
 C          1.0423608113        3.9030425923        1.0546124501
 C         -0.0174086660        4.3566896769        1.8177258748
 C         -1.1888842683        3.6250822155        1.8978912181
 C         -1.3064746571        2.4452735324        1.1718174887
 N         -2.4815655099        1.6830665106        1.2368947423
 S         -2.4850194629        0.0019887532        1.3183236926
 O         -3.3618201063       -0.3169234912        2.4292504162
 O         -1.1480038272       -0.5300913031        1.3963965290
 C         -3.3081360525       -0.4719589364       -0.1900685549
 C         -2.6029784316       -0.5967667567       -1.3696319252
 C         -3.2907214861       -0.9384060747       -2.5247578263
 C         -4.6603920336       -1.1448909316       -2.4855843670
 C         -5.3547140050       -1.0150567484       -1.2922095744
 C         -4.6746319629       -0.6749056876       -0.1349059056
 H         -5.1714036520       -0.5741622048        0.8160722907
 H         -6.4201466252       -1.1772482091       -1.2605844931
 H         -5.1877082289       -1.4092891445       -3.3887244307
 H         -2.7449962376       -1.0378695903       -3.4495869134
 H         -1.5363037208       -0.4361179654       -1.3892512440
 H         -3.1759088224        2.0555390192        1.8683020551
 H         -2.0052459437        3.9610010080        2.5197048050
 H          0.0765840992        5.2757448141        2.3763630750
 H          1.9697789219        4.4571316621        1.0318139048
 C          2.1274454770        2.2306679445       -0.4717946608
 H          3.0190419883        2.6174066620        0.0468577496
 C          2.1453406194        2.9113387579       -1.8396993518
 C          2.6415722434        2.2435342238       -3.0842444320
 C          1.1957452573        2.6200114962       -2.9590116699
 H          0.8278877924        3.4538911526       -3.5390482855
 H          0.4883283193        1.8199234534       -2.8211478803
 H          2.8894061682        1.1938386222       -3.0206396976
 H          3.2778614127        2.8043683706       -3.7531216075
 H          2.4173933579        3.9578549496       -1.7305109827
 O          0.5451341847       -0.0310519869       -1.7914471259
