  62
        -98.94291354
 C         -2.6519015056       -1.1835914167        0.2494444468
 C         -2.7720211922       -0.3283825853       -0.8726207326
 C         -3.7770258165        0.7405650256       -0.7628401848
 C         -4.5242992257        0.8417254274        0.3505391597
 C         -5.5348245336        1.9187917854        0.6153689891
 C         -4.8956810979        3.1115321812        1.3404589978
 C         -3.6016148693        3.6063890860        0.6941818697
 H         -3.2593495015        4.4682395295        1.2710323524
 H         -2.8363688430        2.8323502796        0.7892719005
 C         -3.7404822715        4.0024870299       -0.7824734288
 H         -4.7911821341        4.1643154929       -1.0257242607
 H         -3.2214665015        4.9500844301       -0.9412387761
 C         -3.1420988642        2.9971474293       -1.7682931688
 H         -2.1162597906        2.7613137451       -1.4731677816
 H         -3.0984151328        3.4710120423       -2.7527146011
 C         -3.9126866582        1.6803643521       -1.9281874128
 H         -4.9640688126        1.8913707286       -2.1330376388
 H         -3.4944170846        1.1530336575       -2.7906072950
 H         -5.6225529985        3.9251080371        1.3733150734
 H         -4.6725232233        2.8128958801        2.3672937164
 H         -5.9692386296        2.2433827939       -0.3280957856
 H         -6.3236608961        1.5027760283        1.2442407357
 O         -4.4033014108       -0.0134884583        1.3965031236
 C         -3.4670188705       -1.0305632331        1.3772209923
 O         -3.4590775838       -1.7332004778        2.4074388686
 H         -0.0657900821       -0.7208069297       -1.1650303674
 C          0.4171166690       -1.0198588673       -0.2464137375
 C         -0.2647248969       -1.8383080342        0.6427228556
 C          0.3675243708       -2.2063524148        1.8247019826
 C          1.6473967759       -1.7619982805        2.1066529130
 C          2.3201988314       -0.9392057753        1.2210717549
 C          1.6973992221       -0.5651753071        0.0375086146
 N          2.3562546151        0.2929747755       -0.8586080470
 S          3.9434164246       -0.0438078639       -1.2820763819
 O          4.1379353709        0.5932651258       -2.5660760082
 O          4.2214783312       -1.4601071864       -1.2188720518
 C          4.9041466507        0.8216103520       -0.0574574299
 C          4.6703239517        2.1714261484        0.1181872463
 C          5.4174256802        2.8632820846        1.0579769761
 C          6.3823476833        2.1983580525        1.8000972338
 C          6.6073509124        0.8436635777        1.6097262730
 C          5.8628140752        0.1455940398        0.6714828913
 H          5.9996683046       -0.9091167532        0.4929544305
 H          7.3580704154        0.3286296182        2.1873092861
 H          6.9622132738        2.7394893050        2.5310567341
 H          5.2449182370        3.9168305811        1.2086949207
 H          3.9136797111        2.6512939384       -0.4800487937
 H          1.8039531532        0.5234885030       -1.6722062522
 H          3.3162180340       -0.5884511257        1.4367726669
 H          2.1258648619       -2.0564779414        3.0282500785
 H         -0.1566687614       -2.8370140266        2.5281252420
 C         -1.6569232247       -2.3323332752        0.3260528566
 H         -1.9898468645       -2.9513858019        1.1697075475
 C         -1.6518187239       -3.1950345213       -0.9218501249
 C         -1.1474898971       -4.6021974787       -0.8279605218
 C         -2.6103847113       -4.3411314982       -1.0238217493
 H         -3.0517933435       -4.5594967954       -1.9846542078
 H         -3.2752193419       -4.5117426400       -0.1893273722
 H         -0.5794863358       -5.0018890252       -1.6541290372
 H         -0.8206573467       -4.9527097655        0.1394030152
 H         -1.4403408937       -2.6437205332       -1.8284862418
 O         -2.0860831321       -0.4260535203       -1.9267579064
