  62
        -98.93934308
 C          1.9022787084        1.5285560201        0.2144993294
 C          1.8506911189        0.5720362003       -0.8254802408
 C          2.8932371094       -0.4744235592       -0.8122630009
 C          3.7830697293       -0.5133217390        0.1967327392
 C          4.9721573796       -1.4158140786        0.4540665492
 C          5.2006676603       -2.6716489583       -0.3826074711
 C          4.1878259807       -3.7895492988       -0.1383681214
 H          4.3796627612       -4.5902547186       -0.8557925715
 H          4.3527006808       -4.1940901489        0.8633435985
 C          2.7222365806       -3.3743454794       -0.2340018815
 H          2.1107813709       -4.2557215497       -0.0220417417
 H          2.5061172002       -2.6316919897        0.5371649986
 C          2.2929746605       -2.8247354093       -1.5928510614
 H          1.2028017205       -2.7409454398       -1.5932832915
 H          2.5678266009       -3.5330125491       -2.3770055115
 C          2.8652751099       -1.4448361290       -1.9597963411
 H          2.2125499698       -1.0018882992       -2.7179250911
 H          3.8559633500       -1.5353229885       -2.4001719510
 H          6.1873123804       -3.0541462479       -0.1076787910
 H          5.2452832903       -2.4186969481       -1.4378450110
 H          5.8525300994       -0.7707556382        0.3578684794
 H          4.9129989696       -1.6953345388        1.5108928791
 O          3.7473604988        0.3926680308        1.2177892894
 C          2.8393038083        1.4321283304        1.2459798195
 O          2.9624429378        2.1932436702        2.2254540096
 O          0.9956406790        0.5839021001       -1.7503998909
 C          0.9511481578        2.7149090097        0.2766774595
 C         -0.4426313520        2.2341073790        0.5968935692
 C         -0.8445422621        2.1107794386        1.9237175992
 C         -2.1018931219        1.6286079280        2.2393313289
 C         -2.9764687416        1.2363754478        1.2405186787
 C         -2.5730387115        1.3332007482       -0.0845823012
 C         -1.3241782317        1.8501674088       -0.4010888910
 H         -1.0224206416        1.9088903492       -1.4343977709
 N         -3.4232612512        0.8797776481       -1.1073899014
 S         -4.2213884106       -0.5680626623       -0.8599242018
 O         -4.3712696202       -1.1554364321       -2.1734795819
 O         -5.4525578708       -0.3184391930       -0.1498241718
 C         -3.1577937803       -1.5805836221        0.1598694882
 C         -3.7227542001       -2.2613981625        1.2200723580
 C         -2.9177534298       -3.0589109023        2.0171190879
 C         -1.5616780897       -3.1536253917        1.7473871881
 C         -1.0089851699       -2.4622406512        0.6807241883
 C         -1.8103421502       -1.6733358114       -0.1289399717
 H         -1.3860704403       -1.1282974611       -0.9581917315
 H          0.0478779701       -2.5247669807        0.4766808084
 H         -0.9289310696       -3.7657605515        2.3704588480
 H         -3.3475982997       -3.5967558327        2.8466903578
 H         -4.7787225102       -2.1447164530        1.4029635479
 H         -2.9995391211        0.9080909484       -2.0237531913
 H         -3.9585230615        0.8531515973        1.4675044786
 H         -2.4033892820        1.5500942177        3.2726230789
 H         -0.1531191123        2.3899769388        2.7063313593
 H          1.2984249275        3.3253811997        1.1203957396
 C          1.0212373276        3.5519832800       -0.9849404604
 C          0.4519538170        4.9376515697       -0.9741109802
 C          1.9361846671        4.7371403904       -1.0258580600
 H          2.4553046471        4.9554294708       -1.9472184799
 H          2.5133810569        4.9546963405       -0.1389111799
 H         -0.0500916430        5.2976329097       -1.8590994601
 H          0.0202180268        5.2906302894       -0.0497444801
 H          0.9281285180        2.9744257701       -1.8957867005
