  62
        -98.94538029
 C         -1.5347619478       -1.3012022436       -0.6841718335
 C         -2.8253903649       -1.1348240351       -0.1167461912
 C         -3.5627839599        0.0745198368       -0.4987985533
 C         -2.9967065451        0.9416256994       -1.3573379035
 C         -3.6033156713        2.2453694704       -1.7870508044
 C         -3.1581082509        3.3904263965       -0.8670620302
 C         -3.3184175516        3.0849737828        0.6223741418
 H         -2.6215269480        2.2887011375        0.8972952557
 H         -3.0081170213        3.9774205532        1.1708227946
 C         -4.7418378512        2.6926914965        1.0436987226
 H         -4.9934564455        3.2284700411        1.9614103574
 H         -5.4532214775        3.0070861511        0.2790854815
 C         -4.9323046601        1.2022522420        1.3315449239
 H         -4.1565210638        0.8620931270        2.0226795635
 H         -5.8963314344        1.0729512101        1.8308381326
 C         -4.9228132392        0.2799264675        0.1061674638
 H         -5.6254425464        0.6533712786       -0.6415154250
 H         -5.2582667166       -0.7090573964        0.4319599714
 H         -2.1016879906        3.5972961638       -1.0555300169
 H         -3.7324921642        4.2831664363       -1.1221919753
 H         -3.2736674082        2.4605727235       -2.8049153361
 H         -4.6880867286        2.1571370367       -1.7767568725
 O         -1.7740911142        0.7400176074       -1.9031955053
 C         -0.9990078903       -0.3604260740       -1.5635139744
 O          0.1098561797       -0.3717475183       -2.1328987864
 O         -3.3406588354       -1.9715968996        0.6738260967
 C         -0.7592338012       -2.5264700916       -0.2274027429
 C          0.0515776884       -2.1784490155        0.9997117356
 C         -0.1468236508       -2.8518273853        2.1985122700
 C          0.5615924907       -2.4905250970        3.3309075114
 C          1.4594544882       -1.4405563486        3.2908198666
 C          1.6677084736       -0.7600787183        2.0940847234
 C          0.9852487135       -1.1517738693        0.9524366068
 H          1.1446200605       -0.6213150187        0.0289796731
 N          2.5754445989        0.3037662571        2.0406741435
 S          2.3994971994        1.6251261769        1.0221927244
 O          2.9586442929        2.7272867719        1.7806529148
 O          1.0364096771        1.7882826344        0.5795441526
 C          3.5145754525        1.2524635597       -0.3152310623
 C          4.8652959953        1.3969265891       -0.0563375330
 C          5.7786696738        1.0993078385       -1.0530135454
 C          5.3289966850        0.6616992133       -2.2902679665
 C          3.9721700267        0.5244215094       -2.5345798606
 C          3.0506358812        0.8221559485       -1.5406340444
 H          1.9904417261        0.7145208710       -1.7132593307
 H          3.6149777750        0.1839124952       -3.4935458719
 H          6.0382984527        0.4277428849       -3.0685839897
 H          6.8345480836        1.2081587432       -0.8644708250
 H          5.1690135486        1.7533292635        0.9138893849
 H          2.9614204523        0.5750184765        2.9327267111
 H          1.9939036419       -1.1402912626        4.1794147076
 H          0.3990054767       -3.0185995093        4.2582856500
 H         -0.8779453434       -3.6452824006        2.2450712209
 H         -1.5241198099       -3.2542472891        0.0777812104
 C          0.1088431041       -3.1649416942       -1.2914278132
 C          0.4667756138       -4.6140789018       -1.1596740563
 C         -0.4938075151       -4.1724647209       -2.2219283656
 H         -0.1697275772       -4.1786694705       -3.2515382225
 H         -1.5405474740       -4.4073465711       -2.0935155132
 H          1.4549478926       -4.9279156404       -1.4583488281
 H          0.0706959462       -5.1533104871       -0.3125707219
 H          0.8549162354       -2.4970834803       -1.7001809546
