  62
        -98.94388117
 C          1.6601759506        1.4390859795        0.5412862406
 C          2.6187869509        1.0433521099       -0.4236788193
 C          3.4712243509       -0.0963290801       -0.0456797294
 C          3.2418187008       -0.7465848904        1.1087433704
 C          4.0015706809       -1.9503608504        1.5848548203
 C          3.3576356311       -3.2573278404        1.1014859499
 C          3.0357143414       -3.2711021501       -0.3924407002
 H          2.6121793616       -4.2509537301       -0.6233925904
 H          2.2674952513       -2.5226653101       -0.5986689701
 C          4.2423213015       -3.0132004897       -1.3050430799
 H          5.1688138815       -3.1722624397       -0.7519502298
 H          4.2256204118       -3.7367472196       -2.1227233001
 C          4.2636094915       -1.6220461096       -1.9400005796
 H          3.3012602115       -1.4202004696       -2.4165734297
 H          5.0249202416       -1.6175714593       -2.7246070094
 C          4.5833369711       -0.4623632398       -0.9886870793
 H          4.7613128211        0.4265868704       -1.6007494790
 H          5.4972136411       -0.6843873098       -0.4333847991
 H          2.4293544011       -3.4141519106        1.6557568897
 H          4.0338440612       -4.0808771503        1.3380827098
 H          5.0272694409       -1.8866705902        1.2259969905
 H          4.0091035507       -1.9410479306        2.6763010303
 O          2.2469340206       -0.3971477907        1.9649690703
 C          1.4501802905        0.7051144792        1.7125651304
 O          0.5950787003        0.9292874789        2.5935786203
 O          2.7821373310        1.5985758501       -1.5403610191
 C          0.7277344705        2.6284750794        0.3525372307
 C         -0.4953915993        2.1312891895       -0.3776142096
 C         -0.4833039590        1.8458580898       -1.7386718896
 C         -1.5998310888        1.3013745797       -2.3479442100
 C         -2.7403786889        1.0166691894       -1.6162422502
 C         -2.7556487192        1.2899709491       -0.2552470602
 C         -1.6431769694        1.8548327291        0.3510326702
 H         -1.6517922796        2.0461976789        1.4156149002
 N         -3.8912350193        0.9588621588        0.5090202296
 S         -4.4557069391       -0.6081851912        0.3357080591
 O         -5.3346055989       -0.6755084111       -0.8054569011
 O         -5.0561683593       -0.9464167116        1.6072460489
 C         -3.0125626089       -1.6164567010        0.0330261991
 C         -1.9412103891       -1.5296246510        0.9002849493
 C         -0.8194353489       -2.3053904708        0.6583482794
 C         -0.7909162986       -3.1597152006       -0.4329669508
 C         -1.8759462884       -3.2387419105       -1.2917858410
 C         -2.9961753186       -2.4568354107       -1.0615863610
 H         -3.8572878285       -2.4779014907       -1.7095861712
 H         -1.8490651382       -3.9029391003       -2.1404482412
 H          0.0829824715       -3.7653036904       -0.6130947208
 H          0.0277733910       -2.2263439509        1.3223457195
 H         -1.9747538893       -0.8628242112        1.7475862995
 H         -3.7950964595        1.1910604886        1.4875225896
 H         -3.6124413988        0.5772784594       -2.0734484905
 H         -1.5797059486        1.0844406600       -3.4050026800
 H          0.4166207211        2.0255944500       -2.3059415294
 H          0.4125703703        2.9223023292        1.3631655008
 C          1.3692835305        3.8284758497       -0.3089222089
 C          0.7079380703        5.1650087296       -0.1644144187
 C          1.9956843102        4.8845667996        0.5490063315
 H          2.8969591202        5.3644009598        0.1983844317
 H          1.9656877200        4.7453304693        1.6202280214
 H          0.7226665503        5.8401349697       -1.0060246985
 H         -0.1966751898        5.2156518993        0.4230264612
 H          1.8559028607        3.6056786399       -1.2479382388
