  62
        -98.94697861
 C         -2.3324769492       -0.2911459005       -0.4527606254
 C         -1.4135478092        0.5409961567       -1.1355831273
 C         -1.5203284535        1.9827014443       -0.8672711880
 C         -2.4374625118        2.4300922687        0.0074563802
 C         -2.6225513225        3.8649235893        0.4066106370
 C         -1.7843678476        4.2197722245        1.6419996850
 C         -0.3175844400        3.7992397319        1.5425972620
 H          0.1823783427        4.1493003906        2.4490468401
 H         -0.2471344312        2.7083193177        1.5468213468
 C          0.4193439793        4.3431043548        0.3107653368
 H          1.3990531001        4.7088083412        0.6257120075
 H         -0.1263251983        5.1903312245       -0.1076012524
 C          0.6634464083        3.2975095730       -0.7786740460
 H          1.0866022954        2.4015485915       -0.3176761603
 H          1.4055479653        3.6947656409       -1.4767961665
 C         -0.5699504540        2.8911439017       -1.5961336302
 H         -1.0880962580        3.7850309515       -1.9503504427
 H         -0.2230113205        2.3277285395       -2.4671178877
 H         -2.2222039076        3.7253190711        2.5124062414
 H         -1.8438002879        5.2988652502        1.7986122512
 H         -3.6775845712        4.0213865503        0.6392747140
 H         -2.3459356471        4.5062664208       -0.4281125772
 O         -3.2958594850        1.6041383321        0.6587958359
 C         -3.2552978521        0.2368238006        0.4553777646
 O         -4.0954473787       -0.4015878393        1.1232946287
 O         -0.5396704802        0.1280358872       -1.9449255605
 C         -2.3604253254       -1.8077309901       -0.5813823745
 C         -1.3753240017       -2.4231496940        0.3849110797
 C         -1.7734541752       -3.3937418948        1.2958139514
 C         -0.8711229297       -3.9105837828        2.2088726373
 C          0.4289785802       -3.4415047697        2.2542627031
 C          0.8367765899       -2.4685835612        1.3474638447
 C         -0.0544942999       -1.9988511778        0.3960984698
 H          0.2725906514       -1.2595608783       -0.3135387323
 N          2.1407680945       -1.9507923272        1.3829709882
 S          2.4127452591       -0.2884776635        1.2874685058
 O          3.3172480351        0.0049650668        2.3831017021
 O          1.1744165787        0.4483883300        1.2738277413
 C          3.3181369529       -0.1089491492       -0.2372436115
 C          4.6951078426       -0.2169499920       -0.1714238704
 C          5.4384915128       -0.1054254458       -1.3341842783
 C          4.7956460493        0.1114313504       -2.5437823519
 C          3.4150203588        0.2175876761       -2.5936744308
 C          2.6635642600        0.1051883381       -1.4329845678
 H          1.5877645067        0.1876353002       -1.4624987086
 H          2.9084213412        0.3864365610       -3.5305734125
 H          5.3720914739        0.1999250664       -3.4512415151
 H          6.5128367475       -0.1863569087       -1.2940481209
 H          5.1532489195       -0.3704550594        0.7916778273
 H          2.7142236444       -2.3457597612        2.1148599410
 H          1.1236535047       -3.8178097628        2.9905070682
 H         -1.1898367304       -4.6674075034        2.9097958195
 H         -2.8007919506       -3.7274297678        1.2998018541
 H         -3.3681106034       -2.1145114117       -0.2678553219
 C         -2.1249018099       -2.3135789465       -1.9907674853
 C         -2.6623963832       -3.6568290825       -2.3790748575
 C         -3.2816473973       -2.4112232955       -2.9371604482
 H         -3.1175991553       -2.1697447832       -3.9763797828
 H         -4.2537428695       -2.1155188771       -2.5692568287
 H         -2.0716240030       -4.2761554772       -3.0361467922
 H         -3.2185685598       -4.2087869630       -1.6365136558
 H         -1.1704020046       -2.0137406039       -2.4013221605
