  62
        -98.93668407
 C          1.1678773934        0.6285358224        0.8697208144
 C          1.9904526572        0.7109484866       -0.2803042303
 C          2.6596155913       -0.5375128043       -0.6780083514
 C          2.4084420687       -1.6705393508        0.0004394495
 C          3.0468566626       -3.0000292331       -0.2780647606
 C          4.3304274244       -3.1866557355        0.5433306376
 C          5.2913561665       -2.0004508905        0.4643193909
 H          4.8249848632       -1.1330128646        0.9367378341
 H          6.1725253853       -2.2559085340        1.0566919264
 C          5.7231968389       -1.6279960606       -0.9607593193
 H          6.8015604639       -1.4560980541       -0.9666448693
 H          5.5236782531       -2.4595890565       -1.6375576378
 C          5.0668543105       -0.3602051954       -1.5106109432
 H          5.1836124555        0.4542914604       -0.7914892421
 H          5.5964211298       -0.0712513263       -2.4223091861
 C          3.5789468498       -0.4783288799       -1.8653181179
 H          3.4204016791       -1.3405680572       -2.5169989277
 H          3.2939033495        0.4226281680       -2.4169538268
 H          4.0528365010       -3.3340420642        1.5895800417
 H          4.8341051034       -4.0900798552        0.1946831729
 H          2.3351574697       -3.7839671748       -0.0125447683
 H          3.2669385958       -3.0733546379       -1.3414995853
 O          1.5666812519       -1.7233230782        1.0636659860
 C          0.9302338617       -0.5812591002        1.5206564647
 O          0.1851262309       -0.7721092772        2.5047167195
 O          2.1651386348        1.7627347460       -0.9462197671
 C          0.3967201073        1.8463473073        1.3735145097
 C         -0.4386948785        2.3316604273        0.2124349736
 C         -0.3044912394        3.5070559643       -0.5130162270
 C         -1.0996704950        3.7406161125       -1.6240996988
 C         -2.0181473774        2.8058739748       -2.0594420299
 C         -2.1641611482        1.6228141189       -1.3424516882
 C         -1.4079931018        1.4195375483       -0.2031489087
 H         -1.5278626747        0.4992205885        0.3496205061
 N         -3.0753270047        0.6370792895       -1.7482929331
 S         -2.7461911901       -0.9864204313       -1.4979596064
 O         -1.3288042081       -1.2648625966       -1.4877616173
 O         -3.5195236679       -1.6627123088       -2.5200749892
 C         -3.4893677208       -1.3232082198        0.0835765262
 C         -4.8441445663       -1.0845581742        0.2159286792
 C         -5.4543756678       -1.3392010974        1.4325744680
 C         -4.7035437584       -1.8248354602        2.4933737069
 C         -3.3466370707       -2.0629847329        2.3436627993
 C         -2.7314021279       -1.8138275342        1.1263476671
 H         -1.6736728473       -1.9778643185        0.9861758263
 H         -2.7517002704       -2.4304644413        3.1644892152
 H         -5.1767058248       -2.0193418541        3.4429572208
 H         -6.5100734160       -1.1568286468        1.5525439822
 H         -5.3907189185       -0.7119724221       -0.6341380841
 H         -3.5104698766        0.8017054245       -2.6440869732
 H         -2.6070548253        2.9783637193       -2.9473468864
 H         -0.9765556112        4.6601448437       -2.1764317353
 H          0.4363070901        4.2406388326       -0.2532144888
 H         -0.3108242187        1.4429668582        2.1165386400
 C          1.3200102700        2.7669485270        2.1549233931
 C          2.2830216943        3.7494470028        1.5649191688
 C          1.1017381469        4.2371572733        2.3508465650
 H          1.2849754165        4.6444368250        3.3342745023
 H          0.2821636036        4.7070631171        1.8325375741
 H          3.2610701174        3.8208979580        2.0198126599
 H          2.3066537132        3.8545600650        0.4929440908
 H          1.6886603809        2.2280808768        3.0259070573
