  62
        -98.94608778
 C         -0.9529862039       -1.6566056833        0.6205677897
 C         -1.7255196343       -1.5644000756       -0.5619694702
 C         -2.8616382775       -0.6330287395       -0.5119421899
 C         -3.0863940597        0.0746941395        0.6100667603
 C         -4.2125894129        1.0499219457        0.7945946307
 C         -3.8036247678        2.4765501572        0.4056261109
 C         -3.0939071583        2.5699300598       -0.9444351492
 H         -2.8715488018        3.6233591406       -1.1237472290
 H         -2.1368944565        2.0464039230       -0.8822440794
 C         -3.9033171666        2.0150969074       -2.1248087292
 H         -4.9576577363        1.9493355738       -1.8533741990
 H         -3.8268927990        2.7137207778       -2.9604635890
 C         -3.4290894421        0.6548284391       -2.6392531595
 H         -2.3511778622        0.6844677027       -2.8182303697
 H         -3.9151128116        0.4669736276       -3.6004433895
 C         -3.7336017079       -0.5443137021       -1.7325732897
 H         -4.7897056779       -0.5372965958       -1.4545885696
 H         -3.5357400249       -1.4541710814       -2.3068232399
 H         -4.6997936699        3.0994702342        0.3922250312
 H         -3.1308230490        2.8605216993        1.1736442409
 H         -5.0597991419        0.7265139730        0.1924832407
 H         -4.5039544628        1.0386840045        1.8464057807
 O         -2.2892363893       -0.0024314680        1.7071352902
 C         -1.2058013064       -0.8653467744        1.7401859999
 O         -0.5559550663       -0.8353595424        2.8058437998
 H          1.2956996313       -0.2443163357        0.3127227597
 C          1.6990392837       -0.9586447442       -0.3899705305
 C          1.2414759581       -2.2705074657       -0.3593952708
 C          1.7657103610       -3.1793152138       -1.2683456710
 C          2.7190082695       -2.7754059904       -2.1873521811
 C          3.1879313851       -1.4752117588       -2.1987888908
 C          2.6761397622       -0.5590624207       -1.2857415606
 N          3.1298918877        0.7680737708       -1.2634083304
 S          3.3520405053        1.5610202913        0.1959774498
 O          4.3955374920        2.5270441648       -0.0790331802
 O          3.6113414485        0.6333032619        1.2706798695
 C          1.8338057523        2.4495272761        0.4663619402
 C          1.5383953787        3.4848914753       -0.3997435396
 C          0.3924678462        4.2321357414       -0.1870933093
 C         -0.4361097426        3.9343127184        0.8845173708
 C         -0.1325838590        2.8858271792        1.7384499105
 C          1.0150366035        2.1358015031        1.5319075202
 H          1.2744190764        1.3154173239        2.1846007700
 H         -0.7786643480        2.6360099369        2.5658364706
 H         -1.3212886946        4.5259939154        1.0571612810
 H          0.1493352834        5.0451785907       -0.8518233591
 H          2.2182588579        3.6939309977       -1.2088105796
 H          3.8753129970        0.9710405135       -1.9134574204
 H          3.9424452540       -1.1667089461       -2.9064836409
 H          3.1119125018       -3.4879977489       -2.8967294613
 H          1.4250652544       -4.2014071349       -1.2632939512
 C          0.2123716594       -2.6270660794        0.6858102893
 H          0.6788490790       -2.4786868680        1.6715393693
 C         -0.2866462058       -4.0538542411        0.5930184991
 C          0.5012162380       -5.1678667785        1.2118258587
 C         -0.7888907934       -4.7267348530        1.8335676290
 H         -1.6484919812       -5.3754977859        1.7570583290
 H         -0.7483159752       -4.1632148031        2.7547644391
 H          1.4207119472       -4.9093797356        1.7154264287
 H          0.5263581612       -6.1237439983        0.7107045285
 H         -0.8163692953       -4.2513329126       -0.3316085209
 O         -1.4916094222       -2.2361586246       -1.6001365104
