  62
        -98.93846028
 C         -2.0910674068        0.8447187592        0.4859862409
 C         -3.1282837064        1.1543974303       -0.4232124514
 C         -4.4131780545        0.4528711780       -0.2384606903
 C         -4.5247821453       -0.4355487468        0.7667278575
 C         -5.7080436590       -1.2971544537        1.1189773861
 C         -5.8731038815       -2.4934941721        0.1674613808
 C         -5.6924527081       -2.1682602722       -1.3130419504
 H         -5.7202520698       -3.1113121543       -1.8654348383
 H         -4.7027490712       -1.7338778818       -1.4659338641
 C         -6.7516992592       -1.2454205057       -1.9110894622
 H         -7.7352354762       -1.7057715898       -1.7930860344
 H         -6.5476849627       -1.1691432367       -2.9822098583
 C         -6.8066753000        0.1713804739       -1.3361070860
 H         -7.3030000798        0.1830110118       -0.3694702442
 H         -7.4257309260        0.7715143805       -2.0094920356
 C         -5.4564304358        0.8752950825       -1.2449308474
 H         -5.6321055271        1.9414346163       -1.0565811827
 H         -4.9646477064        0.8339943110       -2.2234554241
 H         -6.8603904798       -2.9294019309        0.3293246061
 H         -5.1249007653       -3.2433805736        0.4361295517
 H         -6.6121828114       -0.6962844108        1.1473842467
 H         -5.5297620048       -1.6778054044        2.1271300711
 O         -3.4935606260       -0.7071874583        1.6168902212
 C         -2.2615581478       -0.0889206192        1.5070223215
 O         -1.4293211502       -0.4448678897        2.3632940111
 O         -2.9906491691        1.9832291008       -1.3632739528
 C         -0.7482685453        1.5358766469        0.3219417354
 C          0.2878911124        0.4989161330       -0.0322971487
 C          0.1985726814       -0.1349102343       -1.2695802853
 C          1.0983825107       -1.1199562753       -1.6274192130
 C          2.1092410779       -1.4953974301       -0.7593483501
 C          2.2111064172       -0.8651663199        0.4731088230
 C          1.3113479419        0.1334270995        0.8267933492
 H          1.3989053369        0.6040657678        1.7930325361
 N          3.2386905140       -1.2358452730        1.3542511815
 S          4.7771680158       -1.4517757541        0.7388528271
 O          4.8839342879       -2.7546659850        0.1303757145
 O          5.6682654027       -1.1999227039        1.8495515424
 C          4.9580998775       -0.1875715581       -0.5078862891
 C          4.8575756551        1.1325313978       -0.1150232379
 C          4.9612871140        2.1268478744       -1.0737703238
 C          5.1609083485        1.7861993925       -2.4030504435
 C          5.2642054420        0.4567236528       -2.7808144571
 C          5.1607557283       -0.5421892849       -1.8258305851
 H          5.2338870816       -1.5879359919       -2.0764277100
 H          5.4214683534        0.1947423842       -3.8147026920
 H          5.2368460185        2.5625922576       -3.1479060189
 H          4.8832909376        3.1619353651       -0.7822341106
 H          4.7078751194        1.3644464309        0.9271058530
 H          3.2458328534       -0.7245660842        2.2237976040
 H          2.8083209681       -2.2759410747       -1.0119831350
 H          1.0121410500       -1.6050514899       -2.5878119972
 H         -0.5968038400        0.1525228771       -1.9433669212
 H         -0.8714166530        2.2044218396       -0.5415412827
 C         -0.4054482255        2.3681804365        1.5385140623
 C          0.6191666249        3.4564432420        1.4268799199
 C         -0.8301824895        3.8041808093        1.5819057754
 H         -1.1667774148        4.2127103309        2.5230313419
 H         -1.3590425572        4.1933196496        0.7243154828
 H          1.2800888889        3.6324583081        2.2620730489
 H          1.0750311919        3.6112503919        0.4609832600
 H         -0.4602321324        1.8080220925        2.4649093426
