  62
        -98.94614129
 C          1.9042650596        1.2663187201        0.3140880195
 C          1.6781159797       -0.0920066000       -0.0100301000
 C          2.7945729098       -1.0093126398        0.2604194202
 C          3.9251665999       -0.5278101295        0.8087078099
 C          5.1546702800       -1.3403827993        1.0918883900
 C          6.1237988798       -1.3145135996       -0.0981710302
 C          5.4613064297       -1.6272738501       -1.4398966700
 H          4.7605917596       -0.8263356403       -1.6871427202
 H          6.2448367896       -1.6135784903       -2.2006752601
 C          4.7268446498       -2.9744489902       -1.4864882594
 H          4.9820315497       -3.4797131905       -2.4204102493
 H          5.0690711300       -3.6114257999       -0.6701080092
 C          3.2014039298       -2.8673244504       -1.4412419092
 H          2.7846658499       -3.8441727305       -1.7009696389
 H          2.8617741796       -2.1563062906       -2.1988699694
 C          2.5989033999       -2.4572607699       -0.0914229493
 H          2.9894923901       -3.1031373696        0.6975078009
 H          1.5167129399       -2.6042244601       -0.1560259991
 H          6.9229403999       -2.0333648495        0.0915702200
 H          6.5698792597       -0.3192133496       -0.1604822506
 H          5.6541254901       -0.9160043289        1.9644227498
 H          4.8635436601       -2.3650581892        1.3142711204
 O          4.0944198398        0.7801369706        1.1313414494
 C          3.0977600697        1.7095545404        0.8843122092
 O          3.3850731896        2.8763014706        1.2195797287
 O          0.6001351797       -0.5207760903       -0.4975485497
 C          0.8216515195        2.2972901299        0.0475801193
 C         -0.4390343904        1.9176280501        0.7850683696
 C         -0.3698856602        1.7234632306        2.1632803896
 C         -1.4932447500        1.3763271507        2.8872883599
 C         -2.7103688801        1.2045107004        2.2498931301
 C         -2.7912547603        1.3987986499        0.8774013901
 C         -1.6629188804        1.7646624997        0.1539771298
 H         -1.7594241206        1.9005799494       -0.9097033402
 N         -4.0171900104        1.2485067895        0.1990150903
 S         -4.1285388904        0.1070257191       -1.0236265293
 O         -3.2048762906        0.4262461888       -2.0794947495
 O         -5.5302904205        0.0927825189       -1.3840469491
 C         -3.7072837002       -1.4344817006       -0.2297058188
 C         -4.7375761000       -2.2484442905        0.2019644016
 C         -4.4338722098       -3.4147338803        0.8842684419
 C         -3.1089653298       -3.7405660400        1.1331657619
 C         -2.0887969599       -2.9100147401        0.6971626615
 C         -2.3827817701       -1.7429241004        0.0077453711
 H         -1.5969830902       -1.0908023604       -0.3403602292
 H         -1.0559881499       -3.1549205499        0.8893016914
 H         -2.8690614596       -4.6458593198        1.6684628622
 H         -5.2271410897       -4.0623520902        1.2215275823
 H         -5.7519695501       -1.9552873407       -0.0160885884
 H         -4.8088401603        1.1401087897        0.8184315004
 H         -3.5897300600        0.9261400605        2.8109476603
 H         -1.4215602499        1.2310783211        3.9545529299
 H          0.5841743799        1.8500747508        2.6575488495
 H          1.1918493395        3.2425273001        0.4708775389
 C          0.6245063493        2.4785002394       -1.4426813408
 C          0.1056659091        3.7783258192       -1.9770449111
 C          1.5400014991        3.3993155192       -2.1893424712
 H          1.8588018090        3.1175385389       -3.1817909211
 H          2.2971679791        3.9166075995       -1.6176596915
 H         -0.5640129210        3.7552911088       -2.8237342610
 H         -0.1116019809        4.5600604794       -1.2648136714
 H          0.3190053693        1.5662221992       -1.9432339404
