  62
        -98.94512907
 C         -1.5023411374       -0.5862197384       -0.5299286973
 C         -2.7170345401       -1.1290459543       -0.0344787928
 C         -3.6391421256       -0.1913164689        0.6168019586
 C         -3.2799500777        1.0990590038        0.7404260526
 C         -4.1346394266        2.1743565210        1.3453082694
 C         -4.9960135499        2.8657362493        0.2791259105
 C         -5.7518846268        1.8947920814       -0.6280339182
 H         -6.3471487865        2.4936818749       -1.3206191702
 H         -5.0310583948        1.3325849154       -1.2259994194
 C         -6.6673649904        0.9127963231        0.1162719106
 H         -6.8610780828        1.2789991020        1.1251219874
 H         -7.6273850314        0.8675688623       -0.4021844236
 C         -6.1339678133       -0.5190671081        0.1914310602
 H         -5.8501002103       -0.8570209782       -0.8083044819
 H         -6.9443801187       -1.1658460228        0.5379325132
 C         -4.9410918403       -0.7389589491        1.1305212314
 H         -5.1683738283       -0.3295562749        2.1171164101
 H         -4.7921200200       -1.8178891280        1.2327414968
 H         -5.7057199000        3.5244327316        0.7829992567
 H         -4.3445285209        3.4816296343       -0.3450822397
 H         -4.7694663720        1.7363148259        2.1132744325
 H         -3.4786806809        2.9137761580        1.8084190442
 O         -2.1026964002        1.5820387480        0.2743469236
 C         -1.1864472762        0.7640999777       -0.3750434786
 O         -0.1733244215        1.3741660947       -0.7646763843
 H          1.5840764439       -0.2504846904       -0.1154965816
 C          1.4848691423       -1.2475408025        0.2785871891
 C          0.4450893076       -2.0577305089       -0.1580316162
 C          0.3056684135       -3.3274882735        0.3911899346
 C          1.1856043018       -3.7743889242        1.3601193335
 C          2.2153500589       -2.9630498230        1.7986076123
 C          2.3630628523       -1.6890605613        1.2580167126
 N          3.4190062250       -0.8703487641        1.6730823811
 S          3.3269125088        0.8009587040        1.6659265723
 O          4.3654513084        1.2022797091        2.5946839137
 O          1.9960702257        1.2690368254        1.9704536778
 C          3.8468638169        1.2385163176        0.0211677800
 C          5.1352976749        0.8913988885       -0.3388579812
 C          5.5856332983        1.2069226310       -1.6095073787
 C          4.7436153065        1.8631962144       -2.4953641405
 C          3.4559205558        2.2073417293       -2.1165592404
 C          2.9977276439        1.8957477650       -0.8445769253
 H          1.9923053724        2.1320153527       -0.5314425870
 H          2.7960450366        2.7139524950       -2.8030500393
 H          5.0917136861        2.1080482305       -3.4866026338
 H          6.5872362420        0.9408102760       -1.9065541952
 H          5.7579737905        0.3906623301        0.3836113551
 H          3.9564839261       -1.2212062867        2.4515384087
 H          2.9003972498       -3.3071028328        2.5585913823
 H          1.0656314448       -4.7608421078        1.7819511743
 H         -0.5135253233       -3.9529119579        0.0677115352
 C         -0.5443456271       -1.5667805327       -1.1891641642
 H         -1.1688622528       -2.4235695822       -1.4778895775
 C          0.1431881084       -1.0369604987       -2.4300381594
 C          0.7687336717       -2.0138873059       -3.3788066163
 C         -0.4771601684       -1.2797761864       -3.7719708273
 H         -0.4077286294       -0.5031002085       -4.5185465157
 H         -1.4059288462       -1.8309634296       -3.8022086725
 H          1.6980380074       -1.7430504910       -3.8553566506
 H          0.6839824391       -3.0637050666       -3.1418608624
 H          0.6432269897       -0.0895280305       -2.2824467231
 O         -3.0196968913       -2.3480788951       -0.1418352610
