  62
        -98.94058366
 C         -2.7025136770       -1.1770793334       -0.3117578360
 C         -2.3162262017       -0.0440989928       -1.0684261784
 C         -3.2225534738        1.1127686041       -0.9994758525
 C         -4.3374490861        1.0396373984       -0.2506968840
 C         -5.3164743043        2.1593963612       -0.0519149525
 C         -4.9532001014        3.0019408211        1.1786607614
 C         -3.4869548150        3.4331131104        1.2213324609
 H         -3.3539779059        4.0481237202        2.1141356805
 H         -2.8555321594        2.5497715357        1.3463471759
 C         -3.0196526306        4.2170016251       -0.0130044900
 H         -3.8834761501        4.6036534531       -0.5551663967
 H         -2.4333212730        5.0760071183        0.3199810251
 C         -2.1337303808        3.4209569838       -0.9734062754
 H         -1.3133885715        2.9572041018       -0.4180160394
 H         -1.6879306476        4.1228654042       -1.6835073250
 C         -2.8439335067        2.3335973153       -1.7899781825
 H         -3.7192205947        2.7590876291       -2.2850480638
 H         -2.1465183682        1.9889109001       -2.5590009856
 H         -5.5937756037        3.8854916341        1.1938813302
 H         -5.1624173691        2.4141142323        2.0753362592
 H         -5.3314242362        2.7848571264       -0.9422112378
 H         -6.3074864354        1.7268815349        0.0950956491
 O         -4.6781263919       -0.0660242312        0.4586501245
 C         -3.8675788020       -1.1868672497        0.4607389170
 O         -4.2891525057       -2.1206765168        1.1719874519
 H          0.5650365211       -1.4254555713       -1.0381168031
 C          0.5284497407       -1.6304636824        0.0205074426
 C         -0.6274812730       -2.1585181778        0.5747287300
 C         -0.6690201518       -2.3724766710        1.9491315450
 C          0.4237510088       -2.0739005022        2.7417367513
 C          1.5788375638       -1.5528707499        2.1844635244
 C          1.6225834827       -1.3161180561        0.8170598688
 N          2.7927567408       -0.7901744250        0.2249025504
 S          3.3909894018        0.6856686998        0.7884450506
 O          3.6415363701        0.5805503637        2.2033266728
 O          2.5312636302        1.7748102706        0.3747146764
 C          4.9379574293        0.7503806552       -0.0929612881
 C          5.0590116427        1.5481640432       -1.2138154859
 C          6.2641161354        1.5622883162       -1.8990701853
 C          7.3195245504        0.7800200030       -1.4557029229
 C          7.1821051373       -0.0163753904       -0.3282812533
 C          5.9807791388       -0.0337917745        0.3616451728
 H          5.8303606347       -0.6307239132        1.2456988591
 H          8.0057330243       -0.6219225306        0.0140740096
 H          8.2556374608        0.7927982214       -1.9913152600
 H          6.3741202717        2.1819836750       -2.7745187110
 H          4.2138640583        2.1444502296       -1.5191142311
 H          2.6742319720       -0.7053209560       -0.7774463892
 H          2.4291731108       -1.3029503112        2.7965934405
 H          0.3783262706       -2.2489544861        3.8063062033
 H         -1.5763363255       -2.7620742934        2.3898897926
 C         -1.8547665925       -2.4398211866       -0.2586332475
 H         -2.4608591346       -3.1807404059        0.2792000508
 C         -1.5385072310       -2.9851019052       -1.6360342822
 C         -1.0251386274       -4.3870398130       -1.7615608019
 C         -2.4135314021       -4.0535488764       -2.2160580781
 H         -2.6194013131       -4.0307317904       -3.2757123130
 H         -3.2445423068       -4.3984428178       -1.6180354101
 H         -0.9130694198       -4.9584447799       -0.8524813145
 H         -0.2757819645       -4.5973748113       -2.5091021821
 H         -1.1532420998       -2.2405801770       -2.3202715609
 O         -1.2776482823        0.0135213004       -1.7791112799
