  62
        -98.94293446
 C         -2.0307053248       -0.9288150749        0.6487827026
 C         -2.8938053674       -1.0493634704       -0.4678553282
 C         -4.2519567140       -0.5114605940       -0.2893162871
 C         -4.5933520146        0.0641045404        0.8769608426
 C         -5.9218106575        0.6989757186        1.1668269038
 C         -5.9142877016        2.1937043750        0.8171284442
 C         -5.3614908072        2.5007558979       -0.5747359618
 H         -5.4340294642        3.5806027809       -0.7220722051
 H         -4.2996054139        2.2446871794       -0.6015988575
 C         -6.0860229476        1.7787501658       -1.7193850355
 H         -6.2649591283        2.4932122295       -2.5256847942
 H         -7.0598962935        1.4264315151       -1.3773745452
 C         -5.3076601744        0.6091992334       -2.3246315066
 H         -4.2970931854        0.9361754592       -2.5822026807
 H         -5.8036574990        0.3159278335       -3.2537326053
 C         -5.2002680170       -0.6446320410       -1.4478259452
 H         -6.1932638094       -0.9373747920       -1.1009894574
 H         -4.8015585718       -1.4506769590       -2.0705117173
 H         -6.9352641463        2.5716526089        0.8966233981
 H         -5.2997316326        2.7186162460        1.5522916759
 H         -6.6950748446        0.1864439272        0.5978144637
 H         -6.1318986481        0.5855299184        2.2317808406
 O         -3.7350689967        0.1741737033        1.9229685397
 C         -2.4421557737       -0.3081038183        1.8323735800
 O         -1.7596383759       -0.1349523945        2.8633020745
 H          1.1648957472        0.2516965244        1.7716854793
 C          1.1664903603        0.3444004910        0.6935499878
 C          0.3026547835       -0.4411028874       -0.0566375617
 C          0.2999199261       -0.2968022933       -1.4396907737
 C          1.1400647280        0.6176070984       -2.0494869747
 C          2.0045128655        1.3953828918       -1.2992778817
 C          2.0138148018        1.2581951969        0.0822643673
 N          2.9178952451        2.0234000752        0.8446684404
 S          4.5295212931        1.9016738002        0.3931087499
 O          5.2885202331        2.1634452095        1.5955672938
 O          4.7840372015        2.7831252579       -0.7182980393
 C          4.7166074799        0.2032631467       -0.1210475914
 C          4.9061041631       -0.0970259536       -1.4542532090
 C          4.9715945466       -1.4268716373       -1.8383829528
 C          4.8422799547       -2.4275125673       -0.8883879046
 C          4.6584897394       -2.1095973960        0.4486617553
 C          4.5917468547       -0.7821947237        0.8384066190
 H          4.4546968829       -0.4992295270        1.8700569378
 H          4.5624637537       -2.8909299737        1.1857298011
 H          4.8858573677       -3.4621988913       -1.1894076176
 H          5.1170590148       -1.6774964391       -2.8766861755
 H          4.9997543504        0.7112958577       -2.1606548192
 H          2.8163445283        1.8902335897        1.8406023210
 H          2.6701534519        2.1083601693       -1.7586195986
 H          1.1239804973        0.7249584119       -3.1233285247
 H         -0.3824058011       -0.8903559057       -2.0274162259
 C         -0.5951353551       -1.4316558987        0.6451793240
 H         -0.2943184251       -1.4591170468        1.7010712070
 C         -0.4394196226       -2.8254855393        0.0692114622
 C          0.8405024912       -3.5625779327        0.3212780858
 C         -0.4237972853       -4.0024512722        0.9950605592
 H         -0.8918777303       -4.9192616230        0.6694225998
 H         -0.5340604185       -3.8100380858        2.0526867640
 H          1.5902519865       -3.0663484834        0.9191626933
 H          1.2434375621       -4.1777717430       -0.4678779265
 H         -0.9175592731       -2.9551259081       -0.8917206260
 O         -2.5735236468       -1.5784950245       -1.5638923423
