  62
        -98.93557801
 C         -2.1105638878       -0.8929686896       -0.4122644304
 C         -3.1220360488       -0.6817011409        0.5594494151
 C         -3.6940486134        0.6712737602        0.6556504898
 C         -3.2323440659        1.6383637423       -0.1584695025
 C         -3.5752981430        3.1101483831       -0.2569865068
 C         -4.8226348013        3.6681531505        0.4232614090
 C         -6.1450142177        3.1857605074       -0.1720072582
 H         -6.9579606470        3.5659799500        0.4502639701
 H         -6.2563342004        3.6212059650       -1.1681551995
 C         -6.2917251687        1.6727026892       -0.3118062449
 H         -5.5426757430        1.2944346429       -1.0103853831
 H         -7.2724410117        1.4714218958       -0.7511378926
 C         -6.1967463273        0.8833921208        0.9923830524
 H         -6.4787680275       -0.1497553442        0.7728434564
 H         -6.9130836106        1.2790512861        1.7148715756
 C         -4.8055301187        0.8521696875        1.6491327044
 H         -4.6341492694        1.7371296640        2.2576750773
 H         -4.7647667030       -0.0148253704        2.3148920240
 H         -4.7891675467        3.4699193937        1.4905342282
 H         -4.7826694716        4.7541205200        0.3021998940
 H         -2.6998375276        3.6422291786        0.1324334832
 H         -3.6202752043        3.3345142410       -1.3275081740
 O         -2.2489144303        1.3929781819       -1.0707510261
 C         -1.6639629257        0.1472688040       -1.2246081249
 O         -0.7872429044        0.1236253660       -2.1127804562
 O         -3.5333408765       -1.5948810119        1.3242580570
 C         -1.5120621780       -2.2891428543       -0.4857043147
 C         -0.2021770401       -2.3145419952        0.2654540995
 C         -0.0885713330       -2.9770885464        1.4819602164
 C          1.0985508558       -2.9470912137        2.1933747294
 C          2.1939028443       -2.2530284135        1.7108089058
 C          2.0861557319       -1.5827114844        0.4996564458
 C          0.9016399569       -1.6270978113       -0.2191969526
 H          0.8202348953       -1.0850473164       -1.1498114807
 N          3.1916604698       -0.8471922616        0.0023317134
 S          3.5741728868        0.5193261186        0.9254416100
 O          4.0033654656        0.0816902537        2.2291969683
 O          2.4770766583        1.4652486556        0.9032160923
 C          4.9620185663        1.1604029342        0.0106699047
 C          6.2291519078        0.6937386407        0.3023412089
 C          7.3025331777        1.1666003635       -0.4356161657
 C          7.0916758246        2.0903557029       -1.4483690870
 C          5.8135368110        2.5490844634       -1.7296446089
 C          4.7356127991        2.0797222881       -0.9955575412
 H          3.7261033271        2.4159238663       -1.1741419285
 H          5.6514318768        3.2685616339       -2.5162213659
 H          7.9281847589        2.4574719270       -2.0217673815
 H          8.2979817106        0.8137432443       -0.2196154469
 H          6.3443677425       -0.0184656633        1.1023806066
 H          2.9971143423       -0.5252207268       -0.9389506517
 H          3.1148955337       -2.1990644708        2.2672937417
 H          1.1702879683       -3.4649601518        3.1379207431
 H         -0.9475386682       -3.4982684651        1.8795260408
 H         -2.2190595734       -2.9335330068        0.0535432882
 C         -1.3626262108       -2.8149204404       -1.8990415239
 C         -1.2000111515       -4.2897572019       -2.1083158334
 C         -2.4757535755       -3.6121427100       -2.5069440904
 H         -2.6865543707       -3.4815910380       -3.5577160401
 H         -3.3552705446       -3.7839698157       -1.9037456661
 H         -0.5323709006       -4.6285669646       -2.8853585450
 H         -1.2138455637       -4.9216019877       -1.2332152201
 H         -0.8169042218       -2.1490072096       -2.5543044338
