  62
        -98.93871663
 C          1.9985628532        1.3541821686        0.3646548042
 C          2.2202017574        0.4544988681       -0.7049600964
 C          2.9639497871       -0.7769174949       -0.3780934616
 C          3.3252966895       -1.0131664059        0.8944729807
 C          4.1199950592       -2.1653522250        1.4585293139
 C          3.8507901552       -3.5665076411        0.8970686394
 C          2.3870463681       -3.8425193891        0.5234079378
 H          2.0675659822       -4.7685737791        1.0053539968
 H          1.7514851715       -3.0389748027        0.9000860512
 C          2.1770081913       -3.9940280091       -0.9850914756
 H          2.9959091641       -4.5892185843       -1.3948384220
 H          1.2533349904       -4.5499442345       -1.1604242887
 C          2.0762659455       -2.6808114303       -1.7589671961
 H          1.1486517885       -2.1634402583       -1.5004880064
 H          2.0260688290       -2.9195939898       -2.8237228970
 C          3.2361572486       -1.6976814479       -1.5335281700
 H          4.1809944904       -2.2223377952       -1.4129894924
 H          3.3061690230       -1.0551685978       -2.4153472965
 H          4.4807338838       -3.7370970708        0.0254028653
 H          4.1737302242       -4.2769052967        1.6602564541
 H          5.1822296520       -1.9309042034        1.3396318813
 H          3.9106140730       -2.1551748063        2.5313304876
 O          3.0179001825       -0.1519408377        1.9080009761
 C          2.3669095799        1.0450548491        1.6727516763
 O          2.1668353985        1.7316121816        2.6971213312
 H         -0.5187694682        1.5379174442        1.6475384980
 C         -0.9460070890        1.8130168599        0.6908107247
 C         -0.1361279720        2.4401648368       -0.2494290099
 C         -0.6877333792        2.7884450389       -1.4741480983
 C         -2.0189265691        2.5163114091       -1.7427230335
 C         -2.8252900957        1.9047652675       -0.8009718136
 C         -2.2814702702        1.5492740436        0.4278761582
 N         -3.0900004392        0.9456647476        1.4064296414
 S         -4.1338042372       -0.2864652615        0.9752363982
 O         -5.2521615458        0.2628321656        0.2509720266
 O         -4.4468138418       -0.9593245463        2.2153420839
 C         -3.1891779063       -1.3624556787       -0.0859628879
 C         -3.3909169053       -1.3449737508       -1.4507871573
 C         -2.6171433912       -2.1695747596       -2.2520413641
 C         -1.6634862547       -2.9946839743       -1.6775762798
 C         -1.4752022184       -3.0033947977       -0.3036222224
 C         -2.2400923811       -2.1758527391        0.5010562463
 H         -2.1276734165       -2.1615891660        1.5737080630
 H         -0.7343913114       -3.6477543725        0.1422342687
 H         -1.0632176490       -3.6361106317       -2.3034642180
 H         -2.7598179874       -2.1657930012       -3.3205254676
 H         -4.1512931413       -0.6996320416       -1.8582955781
 H         -2.5979999729        0.7197295627        2.2580654212
 H         -3.8676654337        1.7077618577       -0.9903743319
 H         -2.4364744366        2.7912014378       -2.6992468139
 H         -0.0761261153        3.2664798561       -2.2206815436
 C          1.3050244058        2.6857910247        0.1275509847
 H          1.3097583442        3.2014767317        1.0986989185
 C          2.0700357784        3.5268451546       -0.8711932518
 C          1.8801619304        5.0127739451       -0.8882508852
 C          3.1610815824        4.4264474087       -0.3771176765
 H          4.0532643331        4.5317562515       -0.9759927311
 H          3.3465523166        4.4483622702        0.6872705028
 H          1.1947462820        5.4366699832       -0.1698126342
 H          1.8944971414        5.5250450939       -1.8381498283
 H          2.2333531055        3.0204263658       -1.8144515738
 O          1.8404245432        0.6690591115       -1.8837608718
