  62
        -98.94642574
 C         -1.5577778013       -1.0779730717        0.0441499379
 C         -2.6127600210       -0.7946964224        0.9488577289
 C         -3.3383219321        0.4620219748        0.7245846811
 C         -2.9443066081        1.2791863484       -0.2688259564
 C         -3.6168418185        2.5696379010       -0.6353079333
 C         -4.6998889093        2.3466329056       -1.7004031932
 C         -5.6617613706        1.2040339089       -1.3744466331
 H         -6.3981788124        1.1593753164       -2.1798261950
 H         -5.1128861767        0.2595909572       -1.3894813881
 C         -6.3851353294        1.3473104004       -0.0280621949
 H         -6.3314266241        2.3817049545        0.3133748039
 H         -7.4410705964        1.1082615056       -0.1711441703
 C         -5.8645722853        0.4221367841        1.0736467073
 H         -6.5765843629        0.4474918705        1.9028564219
 H         -5.8315625307       -0.6056617805        0.7032103560
 C         -4.4849590155        0.7745915456        1.6441156466
 H         -4.3284532084        0.1629394628        2.5373703261
 H         -4.4675492689        1.8251983283        1.9405197657
 H         -5.2621661536        3.2744086897       -1.8208313855
 H         -4.2105788345        2.1206540004       -2.6507421382
 H         -2.8650191262        3.2521939624       -1.0350753056
 H         -4.0561650096        3.0110627227        0.2569763995
 O         -1.9051253896        0.9928574227       -1.0921181281
 C         -1.1989373866       -0.1969826923       -0.9758084930
 O         -0.3005131978       -0.3318962004       -1.8280543623
 O         -2.9322995108       -1.5594607208        1.8969462866
 C         -0.7700205238       -2.3627541354        0.2488071104
 C          0.6173070953       -1.9706592243        0.6903095220
 C          0.8474560743       -1.6540824045        2.0265415522
 C          2.0812738079       -1.1880232053        2.4408116177
 C          3.1034160487       -0.9984539430        1.5265125173
 C          2.8764101503       -1.2972515013        0.1900012763
 C          1.6516172692       -1.8074213349       -0.2176113566
 H          1.4933032606       -2.0297102113       -1.2605100046
 N          3.8845388697       -1.0402608800       -0.7577348532
 S          4.6178601448        0.4624567979       -0.6617448761
 O          4.9821396600        0.8031655886       -2.0197692608
 O          5.7146967149        0.3951282039        0.2737568802
 C          3.3826993299        1.5938815735       -0.0377876643
 C          2.1469893215        1.6513479840       -0.6508764155
 C          1.1955256386        2.5282623181       -0.1551996317
 C          1.4917934162        3.3329194150        0.9336181144
 C          2.7403931488        3.2692763410        1.5326808547
 C          3.6945402874        2.3909128092        1.0456628225
 H          4.6737278699        2.3011595572        1.4875405928
 H          2.9701046648        3.8962632639        2.3791153161
 H          0.7441272850        4.0100757005        1.3158627988
 H          0.2233153990        2.5618801202       -0.6219006036
 H          1.9133037368        1.0121832897       -1.4878867642
 H          3.5935395841       -1.2296426916       -1.7064266526
 H          4.0663112420       -0.6158129055        1.8246733193
 H          2.2470097133       -0.9557563831        3.4815922671
 H          0.0384541385       -1.7641591218        2.7348686993
 H         -1.2655277002       -2.8798351641        1.0809169028
 C         -0.8018672659       -3.2586867654       -0.9710600564
 C         -0.3642555853       -4.6862344545       -0.8419319579
 C         -1.8131799519       -4.3616382292       -1.0431289972
 H         -2.2646487534       -4.5845575163       -1.9983747857
 H         -2.4849014120       -4.4799559932       -0.2055671958
 H          0.1808648821       -5.1359607307       -1.6577269066
 H         -0.0506050109       -5.0231178052        0.1345072094
 H         -0.5745499945       -2.7406165361       -1.8947974396
