  62
        -98.93452764
 C         -1.7738367696       -0.7577576184       -0.9368997141
 C         -2.0512569995       -0.2481848965        0.3534763447
 C         -3.4774665373       -0.1125903917        0.7140226883
 C         -4.4256784069       -0.4894335087       -0.1627049347
 C         -5.9366923520       -0.5054417883       -0.0580752678
 C         -6.6508790385        0.2377005746        1.0677115262
 C         -6.5511131139        1.7609976019        0.9914917238
 H         -7.1403679730        2.1045861694        0.1374853396
 H         -7.0009469381        2.1786772511        1.8948487633
 C         -5.1403840049        2.3223687385        0.8327921163
 H         -5.2185958677        3.4116295972        0.7794835032
 H         -4.7159857286        1.9844097075       -0.1147744250
 C         -4.1700464495        1.9810662169        1.9618123054
 H         -4.5993750927        2.2831608753        2.9190340339
 H         -3.2611578295        2.5675132325        1.8031104231
 C         -3.7563323631        0.5023314047        2.0554550111
 H         -2.8185747969        0.4480533045        2.6162718014
 H         -4.4951995145       -0.0813159990        2.5992747645
 H         -6.3057196548       -0.1202102082        2.0332226105
 H         -7.7090534522       -0.0274536458        0.9925240464
 H         -6.2176990868       -1.5633216028       -0.0073799473
 H         -6.3056599090       -0.1366750536       -1.0206092392
 O         -4.1062367450       -1.0139007579       -1.3834509792
 C         -2.7952316882       -1.1648755808       -1.7962194912
 O         -2.6709713617       -1.6740206178       -2.9281769369
 O         -1.1635352977        0.0768859798        1.1825435304
 C         -0.3509725024       -0.9599912613       -1.4272106590
 C          0.4828904492       -1.6111985866       -0.3509571703
 C          0.0427253265       -2.8130293631        0.1995979934
 C          0.7684249180       -3.4459704680        1.1885248165
 C          1.9663928180       -2.9107562508        1.6303974307
 C          2.4208112315       -1.7206640757        1.0794526264
 C          1.6764134411       -1.0743500145        0.1020926654
 H          2.0366491985       -0.1381438189       -0.2885837290
 N          3.6299024550       -1.1431737839        1.4983936271
 S          4.6773614590       -0.5408719466        0.3402069998
 O          4.5868611223       -1.2852766130       -0.8948389233
 O          5.9740774576       -0.5368427784        0.9843673994
 C          4.1647070036        1.1436659251        0.0796836904
 C          4.0864021734        1.6327687037       -1.2092331374
 C          3.7291965330        2.9578802527       -1.4036688641
 C          3.4591082951        3.7667071243       -0.3102271020
 C          3.5422811595        3.2596436519        0.9777869932
 C          3.9019807047        1.9367745659        1.1788586182
 H          3.9768136597        1.5094279841        2.1646891279
 H          3.3271669891        3.8910241932        1.8247283059
 H          3.1783813674        4.7968585413       -0.4638359891
 H          3.6612322782        3.3525000949       -2.4051805822
 H          4.2956417592        0.9658008213       -2.0306189699
 H          4.1224807101       -1.6610967316        2.2115624986
 H          2.5400528937       -3.4079387232        2.3981285288
 H          0.4059932363       -4.3700786072        1.6137608601
 H         -0.8885010085       -3.2374574379       -0.1522632587
 H         -0.4377602144       -1.6807445999       -2.2581577955
 C          0.2916676307        0.2924094437       -2.0054834452
 C         -0.5409700176        1.3817521488       -2.6109524322
 C          0.1908007146        1.6243365231       -1.3269015345
 H          1.0545627496        2.2728058701       -1.3415254498
 H         -0.3750448771        1.6713762534       -0.4105623689
 H         -0.1810413793        1.8595906127       -3.5096617036
 H         -1.6149270899        1.2675838056       -2.5785239451
 H          1.2282051593        0.0692872496       -2.5088879521
