  62
        -98.94609038
 C          0.9659669144        1.6498502824        0.6180124721
 C          1.7353583235        1.5512840870       -0.5660269167
 C          2.8655163914        0.6126320411       -0.5172133343
 C          3.0887053788       -0.0943265277        0.6055885556
 C          4.2082510448       -1.0773987459        0.7887268620
 C          3.7865058928       -2.5014314123        0.4039112299
 C          3.0723234649       -2.5919708316       -0.9440212122
 H          2.8411543926       -3.6439835272       -1.1205538046
 H          2.1195994401       -2.0608822381       -0.8800914040
 C          3.8826444940       -2.0457468766       -2.1278355265
 H          3.7981569749       -2.7453245898       -2.9619280282
 H          4.9383122597       -1.9876820666       -1.8598040292
 C          3.4175667616       -0.6828682072       -2.6436909862
 H          2.3389834339       -0.7046070998       -2.8197301504
 H          3.9024818754       -0.5005975107       -3.6065194950
 C          3.7336163779        0.5155180116       -1.7399766619
 H          4.7903406609        0.5008860296       -1.4647516827
 H          3.5412148090        1.4258903285       -2.3152821732
 H          4.6774852360       -3.1317052011        0.3895384319
 H          3.1125164525       -2.8783178440        1.1744167047
 H          5.0559513792       -0.7619603361        0.1831261285
 H          4.5030624761       -1.0662095677        1.8395679426
 O          2.2952263388       -0.0097322903        1.7047706222
 C          1.2173329867        0.8599340651        1.7389086848
 O          0.5707492168        0.8370025144        2.8067439204
 H         -1.2878208139        0.2512380140        0.3069807624
 C         -1.6905410599        0.9700935951       -0.3914240458
 C         -1.2265930822        2.2796583101       -0.3579776359
 C         -1.7502929236        3.1941511067       -1.2615409988
 C         -2.7087231575        2.7978536098       -2.1785229700
 C         -3.1837109081        1.4998916952       -2.1927973030
 C         -2.6729423657        0.5781819273       -1.2847859047
 N         -3.1333397239       -0.7468173662       -1.2642062318
 S         -3.3635007409       -1.5374848878        0.1954546765
 O         -4.4145089479       -2.4950669583       -0.0801171976
 O         -3.6163786038       -0.6068990591        1.2691971739
 C         -1.8529635162       -2.4380501503        0.4689379823
 C         -1.5684467868       -3.4824331912       -0.3899407984
 C         -0.4279710861       -4.2372856032       -0.1746016463
 C          0.4062035977       -3.9378194142        0.8921752855
 C          0.1131784938       -2.8808578847        1.7393485934
 C         -1.0291266602       -2.1234793151        1.5304019684
 H         -1.2805970915       -1.2966977504        2.1781588207
 H          0.7633821447       -2.6299857899        2.5631956912
 H          1.2872866255       -4.5350746626        1.0667037463
 H         -0.1935941956       -5.0577119504       -0.8333476901
 H         -2.2523366694       -3.6922963723       -1.1953693374
 H         -3.8804967825       -0.9447022350       -1.9139571766
 H         -3.9426057831        1.1976002764       -2.8984895649
 H         -3.1010316559        3.5148159203       -2.8838257434
 H         -1.4051797895        4.2147593075       -1.2540737606
 C         -0.1924218059        2.6284551124        0.6847634815
 H         -0.6578742997        2.4842444523        1.6716100649
 C          0.3180032493        4.0511062774        0.5902489463
 C         -0.4526683481        5.1708502479        1.2201284283
 C          0.8393637520        4.7155342348        1.8274802356
 H          1.7044497548        5.3561385748        1.7442032545
 H          0.8026225245        4.1495297274        2.7472954306
 H         -1.3692792285        4.9199368350        1.7327216346
 H         -0.4735409106        6.1283900964        0.7220263687
 H          0.8404783887        4.2460630013       -0.3390019337
 O          1.5028205068        2.2224318155       -1.6049138212
