  62
        -98.94065030
 C         -2.6301641575       -0.5885644505       -0.4254518031
 C         -3.0894270776        0.2614860398        0.6155174022
 C         -3.0875257933        1.7020449904        0.3397206618
 C         -2.6810511566        2.1363031376       -0.8665012897
 C         -2.5815867527        3.5768710775       -1.2744105812
 C         -1.1789799679        4.1355978294       -0.9987843684
 C         -0.6611014271        3.8496054164        0.4112535933
 H         -0.4807981136        2.7760721364        0.5166643885
 H          0.3133801568        4.3352982562        0.5018902663
 C         -1.5810157799        4.3357719830        1.5401333927
 H         -0.9669334424        4.8194440931        2.3026628839
 H         -2.2729187449        5.0861324002        1.1553759975
 C         -2.3708348650        3.2302764923        2.2438475981
 H         -2.7926062167        3.6466952935        3.1626195687
 H         -1.6899192698        2.4240992054        2.5315444941
 C         -3.5287919122        2.6218920382        1.4422523854
 H         -4.1221278638        2.0081947554        2.1262465657
 H         -4.1656473161        3.4181130606        1.0518197022
 H         -1.1975069874        5.2137175204       -1.1699304627
 H         -0.4800783966        3.6873260105       -1.7088015239
 H         -3.3277778117        4.1545208731       -0.7324205309
 H         -2.7860384135        3.6462676666       -2.3442597798
 O         -2.2703545402        1.2967166636       -1.8473294528
 C         -2.1835321891       -0.0729951389       -1.6419827251
 O         -1.7042635292       -0.6848737343       -2.6194354982
 O         -3.4870983696       -0.1745276130        1.7295382568
 C         -2.5600242972       -2.0703078362       -0.0913166995
 C         -1.2057225130       -2.3798737991        0.5030911727
 C         -1.0767489991       -3.0076386888        1.7358345513
 C          0.1711853764       -3.2034575348        2.3028324259
 C          1.3136993204       -2.7602924729        1.6604168843
 C          1.1927606448       -2.1435216342        0.4241834046
 C         -0.0535200314       -1.9742972161       -0.1548990768
 H         -0.1313158087       -1.4824236940       -1.1142205915
 N          2.3565320420       -1.6110744198       -0.2016438393
 S          2.6397281199       -0.0335698136        0.3606725817
 O          2.5675428678       -0.0522135438        1.7997874129
 O          1.7650155627        0.9010783670       -0.3164647769
 C          4.3267395912        0.2219117625       -0.1550396926
 C          5.3310807140       -0.3872703071        0.5721840368
 C          6.6450955359       -0.2272697640        0.1635000808
 C          6.9309961444        0.5338725039       -0.9603995174
 C          5.9120458182        1.1393234084       -1.6796678087
 C          4.5949583167        0.9815193778       -1.2766183926
 H          3.7708341320        1.4383461214       -1.8012961183
 H          6.1364489040        1.7322816804       -2.5517365856
 H          7.9545181584        0.6578125089       -1.2770043069
 H          7.4404577716       -0.6951511717        0.7208111359
 H          5.0604178824       -0.9611698825        1.4426351242
 H          2.2174436330       -1.5354247667       -1.2026843180
 H          2.2879985212       -2.8643150381        2.1081921748
 H          0.2522274944       -3.6860838160        3.2648264643
 H         -1.9660401082       -3.3157483553        2.2658008265
 H         -3.3113340975       -2.2289225613        0.6945409172
 C         -2.8710796219       -2.9974856068       -1.2479699501
 C         -3.3497226533       -4.3870033573       -0.9560490703
 C         -4.2943882618       -3.3729042418       -1.5260899449
 H         -4.6063403933       -3.4730093322       -2.5545817980
 H         -5.0545403904       -2.9620786717       -0.8777588193
 H         -3.0118621536       -5.1900317477       -1.5925856261
 H         -3.4730342549       -4.6674599227        0.0788619816
 H         -2.2193546194       -2.8560454980       -2.0999217302
