  62
        -98.93616380
 C         -2.4859193229       -0.9343421595        0.5809837757
 C         -2.8467735022        0.3069957351        1.1663982134
 C         -4.2357196592        0.7380331179        0.9802865732
 C         -5.0909077741       -0.0516469180        0.3062781938
 C         -6.5460883125        0.2322293941        0.0495783536
 C         -6.8004330460        1.1316545073       -1.1678163637
 C         -6.4289456006        2.6029275322       -0.9785936172
 H         -6.8587211732        3.1524012321       -1.8184660073
 H         -6.8967413010        2.9805576330       -0.0689086145
 C         -4.9186384766        2.8745358920       -0.9334964042
 H         -4.6827820903        3.7299020830       -1.5705994978
 H         -4.3801423132        2.0153752313       -1.3403773893
 C         -4.3709242820        3.1841080850        0.4598998669
 H         -4.8024655094        4.1188886572        0.8247531954
 H         -3.2891217314        3.3201663531        0.3804902448
 C         -4.6333140784        2.0866141382        1.4994827883
 H         -4.0226690979        2.2957850618        2.3813395455
 H         -5.6832183977        2.0875462288        1.7919161187
 H         -6.2544998657        0.7250544307       -2.0221369800
 H         -7.8670377831        1.0749734995       -1.3969649288
 H         -7.0238678131       -0.7332732715       -0.1296011508
 H         -6.9929733030        0.6825166097        0.9363554123
 O         -4.7166938328       -1.2463487134       -0.2187079712
 C         -3.4073493434       -1.7094647797       -0.1252608608
 O         -3.2266320568       -2.7977465197       -0.6996454001
 H          1.3528841481       -0.1371626799        0.9323048353
 C          1.0457133025       -0.2844865805       -0.0926614876
 C         -0.1735342030       -0.8821754957       -0.3735048933
 C         -0.5552068939       -1.0330822043       -1.7031137315
 C          0.2745602369       -0.6021188012       -2.7221396517
 C          1.5033189435       -0.0322114626       -2.4385534747
 C          1.8902912118        0.1298893684       -1.1134801882
 N          3.1219473718        0.7181762498       -0.7879122813
 S          3.9421175144        0.1223671050        0.5645492103
 O          3.8584349498       -1.3200777274        0.5920569924
 O          3.4661368313        0.8114994079        1.7374617746
 C          5.6063986469        0.6435090043        0.1954288526
 C          6.4914060449       -0.2570108395       -0.3666036916
 C          7.7741817167        0.1682536351       -0.6750363647
 C          8.1466333937        1.4796099504       -0.4205553970
 C          7.2471459904        2.3716694331        0.1446899224
 C          5.9636613635        1.9529885260        0.4571281965
 H          5.2340133125        2.6065452352        0.9063539543
 H          7.5412571386        3.3895524153        0.3437264111
 H          9.1452789611        1.8080933381       -0.6614993445
 H          8.4768800944       -0.5236097963       -1.1107053001
 H          6.1598634989       -1.2683903380       -0.5388717622
 H          3.7325040492        0.8257475139       -1.5863625087
 H          2.1544416917        0.2909583150       -3.2364924946
 H         -0.0330595175       -0.7252563590       -3.7497703365
 H         -1.5016496866       -1.5021943313       -1.9270843122
 C         -1.0429401652       -1.3685929856        0.7577601800
 H         -0.7035304877       -0.8505127268        1.6701769945
 C         -0.8805158156       -2.8618855406        1.0064091370
 C         -0.3100933052       -3.8124742821        0.0017967077
 C          0.4854427782       -3.4468070454        1.2168661537
 H          0.6141885914       -4.1858294149        1.9935256821
 H          1.3400154055       -2.7977774873        1.0844829829
 H          0.0053158304       -3.4181856820       -0.9511514978
 H         -0.7493714085       -4.7962583783       -0.0597735509
 H         -1.6755467529       -3.2520657749        1.6345161127
 O         -2.0413022942        1.0193124333        1.8254638418
