  62
        -98.94442810
 C         -1.7115124332       -1.2906642961        0.3993175190
 C         -1.7258366532       -0.3275901740       -0.6387277948
 C         -3.0568095383        0.0551173896       -1.1347675178
 C         -4.1502067472       -0.5346112743       -0.6180238120
 C         -5.5646084995       -0.2032769786       -0.9948095251
 C         -6.1407373232        0.8853851857       -0.0787976092
 C         -5.2290947107        2.1021105502        0.0815956292
 H         -4.3208850987        1.8024477601        0.6100142429
 H         -5.7505149743        2.8177768983        0.7210022788
 C         -4.8426866435        2.7836809185       -1.2385076972
 H         -4.9417943847        3.8643875115       -1.1165031830
 H         -5.5329509505        2.4823254210       -2.0273001347
 C         -3.4063188421        2.5184462769       -1.6944533240
 H         -2.7141489112        2.7322036462       -0.8752175974
 H         -3.1734737120        3.2142889172       -2.5052185711
 C         -3.1182924451        1.1027171497       -2.2103747103
 H         -2.1271123089        1.1161497158       -2.6733604861
 H         -3.8511168060        0.8327995758       -2.9736205698
 H         -6.3104819206        0.4524543468        0.9097309393
 H         -7.1046891726        1.2016633193       -0.4813215965
 H         -5.5919629712        0.1268729302       -2.0312548714
 H         -6.1679781717       -1.1069532621       -0.8939424049
 O         -4.0928782512       -1.4784131431        0.3558526471
 C         -2.8802430999       -1.8609147078        0.9046689558
 O         -2.9719404367       -2.7048228052        1.8189623536
 H          2.1045489964       -0.6264597449        0.6045132260
 C          1.5285882124       -0.0906507558        1.3375963508
 C          0.2559049216       -0.5220405186        1.6718445921
 C         -0.4513705366        0.1807931823        2.6448590846
 C          0.1016956383        1.2872204961        3.2588125945
 C          1.3651795866        1.7285295094        2.9021894249
 C          2.0776566133        1.0382672743        1.9317552228
 N          3.3703940201        1.4426397686        1.5431852135
 S          3.5941790848        1.8382560977       -0.0796153244
 O          4.8405041663        2.5767116993       -0.0955575756
 O          2.4461415533        2.5342535411       -0.6120450301
 C          3.8401012751        0.2821361537       -0.9050682632
 C          4.9789680328       -0.4383316609       -0.6016481082
 C          5.1927950433       -1.6501318090       -1.2381405115
 C          4.2719067928       -2.1135964784       -2.1662592802
 C          3.1365203762       -1.3745116365       -2.4625139397
 C          2.9125477107       -0.1630414246       -1.8263464575
 H          2.0257520515        0.4256227661       -2.0054522958
 H          2.4175869214       -1.7379123572       -3.1799983639
 H          4.4373448515       -3.0575353536       -2.6618677571
 H          6.0727266199       -2.2296053790       -1.0096416639
 H          5.6714932351       -0.0362610231        0.1188158359
 H          3.7526874031        2.1810591644        2.1187153130
 H          1.7932710972        2.6026930338        3.3700848383
 H         -0.4574957918        1.8190671163        4.0142207850
 H         -1.4439680306       -0.1564312740        2.9130317854
 C         -0.3949166903       -1.7203490145        1.0237166895
 H         -0.6554384194       -2.4355122795        1.8171881221
 C          0.4819590554       -2.4145643766        0.0037780216
 C          1.5613398037       -3.3513392441        0.4537510341
 C          0.3301118184       -3.8889960625       -0.2101387315
 H          0.4103451838       -4.2740428867       -1.2153444992
 H         -0.3971403059       -4.4071712095        0.3981432780
 H          1.6733066704       -3.5093601421        1.5156309994
 H          2.4902192613       -3.3656258324       -0.0964185507
 H          0.6712364267       -1.8013094445       -0.8688442292
 O         -0.6867232669        0.1841864681       -1.1314003664
