  62
        -98.94161990
 C          2.1237209183        0.8318423973        0.2837230710
 C          2.9807764328        0.2186684373        1.2326025578
 C          3.7584788860       -0.9336925361        0.7589159297
 C          3.5681870101       -1.3814844292       -0.4952010959
 C          4.3271067557       -2.5117294656       -1.1265884618
 C          5.5793862526       -2.0015162481       -1.8535909777
 C          6.4398395124       -1.0572698138       -1.0137940738
 H          7.3086667135       -0.7864876552       -1.6174476409
 H          5.8806009240       -0.1376830670       -0.8263453998
 C          6.9097479893       -1.6462728481        0.3237225086
 H          7.9685821759       -1.4142322181        0.4555672740
 H          6.8163564495       -2.7326618346        0.3030041076
 C          6.1780067729       -1.0984495025        1.5504614340
 H          6.7274298629       -1.4116962042        2.4420802461
 H          6.1898424941       -0.0057525062        1.5265875809
 C          4.7257830424       -1.5613515582        1.7227518908
 H          4.6769373114       -2.6506630470        1.6634416943
 H          4.3948863539       -1.2560904629        2.7199072760
 H          5.2633927565       -1.4685881589       -2.7534426334
 H          6.1745883942       -2.8633541715       -2.1607031766
 H          4.6071657977       -3.2289756955       -0.3572639004
 H          3.6726400568       -3.0040032749       -1.8481522296
 O          2.6798844079       -0.8186562899       -1.3524151876
 C          1.9405498361        0.3039871295       -0.9957717918
 O          1.1771905387        0.7073751601       -1.8918389010
 H         -0.2462234798        0.0389794111        1.4437107723
 C         -0.7892919116        0.7512724010        0.8332027941
 C         -0.1251448433        1.8775331132        0.3616645154
 C         -0.8269841740        2.7746514693       -0.4314071138
 C         -2.1552095813        2.5412404411       -0.7434938080
 C         -2.8112170342        1.4193790685       -0.2723531826
 C         -2.1165935622        0.5111299124        0.5161198901
 N         -2.7739312625       -0.6305381825        1.0085514797
 S         -3.6604034486       -1.5700735955       -0.0651725917
 O         -3.6881260038       -2.8889193235        0.5310189767
 O         -3.1441081992       -1.4841276319       -1.4112020152
 C         -5.2949026259       -0.8673288166        0.0138585391
 C         -5.9091470116       -0.7849270394        1.2482329418
 C         -7.1822966438       -0.2437317900        1.3270341725
 C         -7.8173157663        0.2003638069        0.1766377970
 C         -7.1890380109        0.1064350438       -1.0557081976
 C         -5.9148142081       -0.4330909418       -1.1413087076
 H         -5.3845114687       -0.5216798774       -2.0763676974
 H         -7.6842487808        0.4512596279       -1.9491902417
 H         -8.8079337423        0.6220670788        0.2406697364
 H         -7.6742986648       -0.1696837694        2.2834505370
 H         -5.3826029650       -1.1453064939        2.1160737680
 H         -2.1868497051       -1.2162542600        1.5850024751
 H         -3.8429005617        1.2316596193       -0.5207949711
 H         -2.6868781058        3.2430353132       -1.3678956007
 H         -0.3281588248        3.6432407938       -0.8282394733
 C          1.3262386752        2.0418764400        0.7374260838
 H          1.3928589947        2.0104919435        1.8383967063
 C          1.9174685990        3.3768546754        0.3103441558
 C          3.3861463391        3.5213904143        0.0490007935
 C          2.4100379894        3.6294861360       -1.0819002395
 H          2.2384773308        4.6033551037       -1.5167925116
 H          2.3452021623        2.8181865613       -1.7897201356
 H          3.9960272151        2.6318538219        0.1144404899
 H          3.8831053024        4.4169006695        0.3907130744
 H          1.4379656727        4.2099731851        0.8148825869
 O          3.0849159717        0.6145034158        2.4247642046
