  62
        -98.94612164
 C          1.4018927318        1.1443528523       -0.0689165097
 C          2.2874258363        0.6645533556        0.9329304138
 C          3.0172068747       -0.5681194938        0.6202505960
 C          2.8073769376       -1.1848833055       -0.5562657570
 C          3.4482206408       -2.4672515907       -1.0137524244
 C          4.8383028914       -2.2820544975       -1.6375683306
 C          5.9550550473       -1.9419289425       -0.6498059324
 H          5.9518739131       -2.6669288624        0.1646778890
 H          6.9003721641       -2.0571495787       -1.1838690387
 C          5.8826812870       -0.5195615328       -0.0767270310
 H          5.2251463676        0.0911864258       -0.6997600172
 H          6.8735215299       -0.0612248359       -0.1142587218
 C          5.4028065943       -0.4433269605        1.3728233216
 H          5.3538563488        0.6094716363        1.6621769021
 H          6.1265481024       -0.9377206915        2.0245413047
 C          4.0218018423       -1.0666473766        1.6142815402
 H          4.0891402051       -2.1535593700        1.5753200321
 H          3.6807978280       -0.7704685069        2.6090382752
 H          4.7780533429       -1.5034779216       -2.4016532043
 H          5.0976933201       -3.2179813648       -2.1378930295
 H          2.7879509923       -2.8947551047       -1.7719390567
 H          3.5147505504       -3.1637358872       -0.1773206508
 O          1.9376138038       -0.7055047077       -1.4831909121
 C          1.2237053027        0.4669773970       -1.2749337260
 O          0.4854554359        0.7675819058       -2.2345482850
 O          2.4580346546        1.2423354832        2.0378033501
 C          0.6238879844        2.4118802377        0.2525904663
 C         -0.7872740712        2.0250890874        0.6219655328
 C         -1.1709367657        1.9378253398        1.9559480743
 C         -2.4365575948        1.4962565600        2.3003488375
 C         -3.3370771391        1.1098451842        1.3235313454
 C         -2.9563083042        1.1822251787       -0.0099355543
 C         -1.7014644740        1.6592468857       -0.3555447154
 H         -1.4120079099        1.6912806219       -1.3944139638
 N         -3.8349469602        0.7102851305       -1.0070999376
 S         -4.3651828956       -0.8637531227       -0.7733360456
 O         -4.5494178481       -1.4186512695       -2.0960620451
 O         -5.5396596404       -0.8470868536        0.0636878876
 C         -3.0380808137       -1.6952445929        0.0877457406
 C         -3.2762503925       -2.2453127061        1.3309460591
 C         -2.2335233422       -2.8588311817        2.0061188462
 C         -0.9733040017       -2.9076605975        1.4311561820
 C         -0.7511619006       -2.3544207949        0.1798091171
 C         -1.7898053894       -1.7410359934       -0.5012586573
 H         -1.6301489234       -1.2979016079       -1.4722443638
 H          0.2300026189       -2.3864910372       -0.2671410312
 H         -0.1570442621       -3.3762895509        1.9578199365
 H         -2.4039776815       -3.2909618879        2.9788917326
 H         -4.2696467788       -2.1779100650        1.7436765559
 H         -3.4564949367        0.8113629897       -1.9388145918
 H         -4.3187297484        0.7382307440        1.5697930184
 H         -2.7207061420        1.4390217878        3.3397705924
 H         -0.4583537829        2.1997891383        2.7244239455
 H          1.1059949730        2.8247474204        1.1483624407
 C          0.6834362464        3.4509655164       -0.8475920038
 C          0.3262770245        4.8697886309       -0.5237542806
 C          1.7513705423        4.5008599404       -0.8041272227
 H          2.1957456943        4.8219866663       -1.7343641702
 H          2.4444511430        4.4763940133        0.0241253473
 H         -0.2108594922        5.4472741624       -1.2603856644
 H          0.0524503964        5.0944001812        0.4959810289
 H          0.4072846818        3.0723451053       -1.8230562610
