  62
        -98.92959055
 C          2.3666326200        0.8102846422        0.9789330491
 C          3.5190258022        1.0134643681        0.1835570981
 C          4.5624501981       -0.0300858726        0.2628471671
 C          4.3619058853       -1.1212934033        1.0231984606
 C          5.2486597453       -2.3145634872        1.3128886877
 C          6.4778063438       -2.6030194772        0.4547963216
 C          6.1722347637       -3.0073636418       -0.9869986671
 H          7.1186446957       -3.0907450921       -1.5257752137
 H          5.7055123490       -3.9956756016       -0.9796420435
 C          5.2455925514       -2.0673477467       -1.7542655600
 H          5.1149995376       -2.4750177735       -2.7605288521
 H          4.2599003027       -2.0574506364       -1.2837156166
 C          5.7431211973       -0.6302324211       -1.8963621634
 H          5.0732700032       -0.1186742723       -2.5927662289
 H          6.7435807733       -0.6291254306       -2.3333376547
 C          5.7738773238        0.1922950601       -0.5965655354
 H          6.6839385936        0.0064532237       -0.0314356751
 H          5.7660792931        1.2515418229       -0.8695583434
 H          7.1595587713       -1.7579868589        0.4765600916
 H          6.9969665268       -3.4406932023        0.9285188326
 H          5.5732588083       -2.1974186456        2.3528608169
 H          4.5865494528       -3.1861745622        1.2941885318
 O          3.2172584539       -1.2869381046        1.7510819346
 C          2.2079710595       -0.3444453212        1.7469858150
 O          1.2299733570       -0.6382917454        2.4652516398
 H         -1.4102731662        1.1945047335        1.3380532038
 C         -1.1126584007        1.1553427797        0.2986224831
 C          0.2015296160        1.4376350688       -0.0407369559
 C          0.5805868223        1.3490852293       -1.3768781367
 C         -0.3437427728        0.9974015805       -2.3430495174
 C         -1.6576984821        0.7252775047       -2.0020149278
 C         -2.0428396572        0.7974103771       -0.6703660976
 N         -3.3798221933        0.5398465345       -0.3055889219
 S         -4.1181214424       -0.8434902370       -0.9378676743
 O         -3.3208635242       -2.0153050165       -0.6475057483
 O         -4.4130358633       -0.6104472180       -2.3289704471
 C         -5.6288181721       -0.8597048666        0.0056768877
 C         -6.6694247123       -0.0452320434       -0.3987902425
 C         -7.8354909363       -0.0285320383        0.3495389628
 C         -7.9405650380       -0.8211413068        1.4830108358
 C         -6.8880747066       -1.6345623322        1.8751801479
 C         -5.7179970679       -1.6548493541        1.1321958107
 H         -4.8772678270       -2.2768896450        1.3960192509
 H         -6.9732886844       -2.2517536506        2.7551180365
 H         -8.8492559683       -0.8071551822        2.0638449440
 H         -8.6570175929        0.6006333447        0.0473479003
 H         -6.5449375307        0.5464264732       -1.2904550804
 H         -3.4935148464        0.5473564242        0.7000166270
 H         -2.3808020701        0.4393994396       -2.7481538590
 H         -0.0389470307        0.9313726625       -3.3769980822
 H          1.6060902089        1.5540272057       -1.6452041173
 C          1.2018803399        1.7857354384        1.0315664251
 H          0.7196230188        1.5990253597        2.0043827069
 C          1.6318718728        3.2459227325        1.0154542405
 C          1.3279120555        4.1926276481       -0.1026674072
 C          0.6015569505        4.3210885709        1.2000848106
 H          0.8309792101        5.1548730426        1.8460554052
 H         -0.4333876451        4.0134985943        1.2238844886
 H          2.0817809944        4.9228525234       -0.3540586501
 H          0.7811467001        3.8222302752       -0.9552201712
 H          2.5808498978        3.3923504079        1.5202414668
 O          3.6984298624        2.0126264609       -0.5575782192
