  62
        -98.94213496
 C         -0.6770650228       -1.8703225327        0.0943532669
 C         -1.4464156115       -1.1576846169        1.0400606279
 C         -2.6944902650       -0.5364219021        0.5571131580
 C         -3.0337039014       -0.6899847365       -0.7362944759
 C         -4.2319694444       -0.1236691393       -1.4501769974
 C         -4.0707947939        1.3687803812       -1.7874173915
 C         -3.4419213000        2.2187113103       -0.6859032023
 H         -2.4614162421        1.8057107465       -0.4397080523
 H         -3.2599327332        3.2144927728       -1.1003282441
 C         -4.2819325943        2.3835155496        0.5787091657
 H         -3.7248767454        3.0367774150        1.2555960523
 H         -5.2132862943        2.8923403036        0.3186990209
 C         -4.6316005208        1.0981764884        1.3298826395
 H         -5.0610469082        1.3924273941        2.2921980774
 H         -5.4024117640        0.5412084008        0.8044074717
 C         -3.4430775522        0.1955901999        1.6451063942
 H         -3.7714806793       -0.5764416551        2.3519546084
 H         -2.6888562494        0.7799567332        2.1844920462
 H         -3.4219115606        1.4479771736       -2.6633736073
 H         -5.0496778979        1.7732581921       -2.0515540816
 H         -4.3333202804       -0.6802740196       -2.3845830270
 H         -5.1292056724       -0.2967244744       -0.8625524479
 O         -2.2654613547       -1.3960884583       -1.6136500490
 C         -1.0693114114       -1.9815568606       -1.2391131030
 O         -0.4693728398       -2.5674589828       -2.1611540757
 O         -1.1035909127       -1.0319357166        2.2476824110
 C          0.6409548629       -2.4759382523        0.5316330910
 C          1.8087100930       -1.8378456828       -0.1843145996
 C          3.0211495058       -2.4953548304       -0.3628617364
 C          4.0752571364       -1.8602315278       -0.9957124492
 C          3.9530211014       -0.5608657399       -1.4543572739
 C          2.7449689069        0.1053480530       -1.2816565717
 C          1.6938336299       -0.5343834110       -0.6442760513
 H          0.7545899390       -0.0158044250       -0.5398980886
 N          2.5678897088        1.4115511091       -1.7505426770
 S          1.4119322960        2.4319298338       -1.1224548610
 O          0.0893513645        2.0036092730       -1.5024752686
 O          1.8122497203        3.7407142274       -1.5952181788
 C          1.6147144481        2.3505924600        0.6473906407
 C          2.8293707011        2.7347555442        1.1814215977
 C          3.0156960327        2.6508083587        2.5513123160
 C          1.9925076429        2.1790122507        3.3602384913
 C          0.7766478550        1.8040658590        2.8107680667
 C          0.5840240530        1.8945563993        1.4418660009
 H         -0.3476892993        1.6025965446        0.9822780896
 H         -0.0177987624        1.4176499414        3.4293045760
 H          2.1409860845        2.1028086803        4.4258200918
 H          3.9579498050        2.9463292323        2.9838360840
 H          3.6003960447        3.1006183154        0.5232406153
 H          3.3951307116        1.8877712798       -2.0741292394
 H          4.7747968924       -0.0702666673       -1.9524164510
 H          5.0086818053       -2.3844697130       -1.1330135236
 H          3.1361642867       -3.5080048597       -0.0121716460
 H          0.7311573550       -2.2315572717        1.6018718155
 C          0.6162746866       -3.9845025046        0.3798155646
 C          1.3069119209       -4.8653514327        1.3767609672
 C         -0.1891892354       -4.7944183363        1.3502141840
 H         -0.7444545271       -5.6424617613        0.9786097100
 H         -0.6902681591       -4.2585698469        2.1432818688
 H          1.7810118304       -5.7687822778        1.0235640444
 H          1.8171281475       -4.3883883094        2.1999853589
 H          0.6054655650       -4.2949818380       -0.6589118455
