  62
        -98.93465434
 C          1.3851869594        1.3402885400        0.3362364603
 C          1.5717581497       -0.0554841500        0.4966245197
 C          2.8126460300       -0.6357582794       -0.0448531204
 C          3.7090705199        0.1732232712       -0.6389262598
 C          5.0385908201       -0.1235174881       -1.3011772297
 C          5.7054091605       -1.4864013580       -1.1353228302
 C          6.2176224503       -1.7799445286        0.2746986898
 H          6.5721915706       -2.8126192385        0.3022436893
 H          7.0733983600       -1.1300062084        0.4746636603
 C          5.2087996800       -1.5704385594        1.4012760397
 H          5.7118348498       -1.7951962097        2.3458984697
 H          4.9124102197       -0.5201197095        1.4377295301
 C          3.9537668902       -2.4374225197        1.3248775290
 H          4.2383277306       -3.4892678196        1.2570689785
 H          3.4018987800       -2.2990964603        2.2585446389
 C          2.9949258404       -2.1110924394        0.1673312290
 H          2.0067633004       -2.5013033598        0.4258182086
 H          3.3099581007       -2.5949130089       -0.7538892012
 H          5.0385384408       -2.2744738380       -1.4720373007
 H          6.5686722506       -1.4943256474       -1.8063960600
 H          4.8831249903        0.0586220024       -2.3702099696
 H          5.7252205098        0.6558321919       -0.9550501791
 O          3.4859137895        1.5125528512       -0.7719008592
 C          2.3292864893        2.1316965906       -0.3148171791
 O          2.2931257590        3.3529125607       -0.5504734285
 O          0.7286048998       -0.7913928605        1.0738292691
 C          0.0883082391        1.9102588494        0.8819472103
 C         -0.9863200207        1.8064085396       -0.1689901599
 C         -0.8119121206        2.3699367403       -1.4303278596
 C         -1.8001130203        2.2540319005       -2.3897020799
 C         -2.9675729602        1.5604923400       -2.1194209405
 C         -3.1453124703        0.9844710093       -0.8673668308
 C         -2.1580134105        1.1163895891        0.1008681895
 H         -2.3108551906        0.6673200886        1.0703757392
 N         -4.3157560101        0.2767238988       -0.5657085414
 S         -4.2709368100       -1.0417735216        0.4574168280
 O         -5.4665264597       -1.7870349218        0.1223713374
 O         -4.1774324004       -0.6024773423        1.8272604582
 C         -2.8296454696       -1.9919785810        0.0073221378
 C         -2.0229185997       -2.5012818013        1.0026515177
 C         -0.9334848194       -3.2815110208        0.6521656676
 C         -0.6668407290       -3.5307715301       -0.6838189925
 C         -1.4854304490       -3.0096260298       -1.6739232424
 C         -2.5820934193       -2.2379035603       -1.3287636723
 H         -3.2383298992       -1.8300851501       -2.0804927522
 H         -1.2712509387       -3.2022236392       -2.7131388525
 H          0.1868900212       -4.1316805997       -0.9562286326
 H         -0.2934891894       -3.6791420610        1.4229855875
 H         -2.2517121900       -2.2698617318        2.0304406178
 H         -4.9512576399        0.1408988290       -1.3377205816
 H         -3.7363195600        1.4665032101       -2.8710907907
 H         -1.6580576303        2.7015929410       -3.3617831196
 H          0.1049968093        2.8991857206       -1.6437068992
 H         -0.1947600709        1.2321556889        1.7031932199
 C          0.2262743386        3.3047016491        1.4746461810
 C         -0.4432425617        4.5187183992        0.9108033115
 C         -0.9399953418        3.9204791885        2.1903665511
 H         -0.7630792421        4.4470870081        3.1159970514
 H         -1.8767669316        3.3829175482        2.1606796606
 H          0.1016346681        5.4496499894        0.9483986421
 H         -1.0524529914        4.4076230795        0.0279694213
 H          1.2044038784        3.4635540892        1.9165127413
