  62
        -98.94519641
 C          1.7583229317        1.3405857535       -0.2404032629
 C          2.8776091695        0.7320520079        0.3675998420
 C          3.2929235139       -0.5703835320       -0.1793110409
 C          2.6007680259       -1.0978500131       -1.2046118056
 C          2.7948886038       -2.4463485848       -1.8403221910
 C          1.8726539512       -3.4826780015       -1.1735057504
 C          2.4760968729       -4.1883217490        0.0394351822
 H          1.6893987362       -4.8089377489        0.4750565370
 H          3.2805503927       -4.8514933566       -0.2875529309
 C          3.0145823038       -3.2520868983        1.1241478276
 H          3.0523039712       -3.8103917846        2.0620679941
 H          2.3092854397       -2.4304193111        1.2686269905
 C          4.4165947326       -2.7071611512        0.8120670412
 H          4.8445585390       -3.2819284676       -0.0093161504
 H          5.0656998318       -2.8691624962        1.6752498473
 C          4.4839694542       -1.2083106098        0.4827995937
 H          4.6213063262       -0.6400845624        1.4083654930
 H          5.3685797190       -1.0191802748       -0.1348079663
 H          0.9531580877       -2.9737232042       -0.8697572454
 H          1.6022905503       -4.2423647836       -1.9102426863
 H          2.5056900186       -2.3438140492       -2.8882782941
 H          3.8354291394       -2.7540047253       -1.7906276875
 O          1.5478373517       -0.4620638259       -1.7841733534
 C          1.0787167316        0.7428135860       -1.3004878346
 O          0.0753582990        1.1843627767       -1.8950163920
 H          0.1549048586        0.4787257465        1.4923839584
 C         -0.5907083863        1.2418783407        1.3227967887
 C         -0.2277400554        2.4467335372        0.7344922912
 C         -1.2106666561        3.4109032856        0.5475873852
 C         -2.5223967507        3.1578541526        0.9117999461
 C         -2.8876393764        1.9336125402        1.4414283808
 C         -1.9092316046        0.9674303211        1.6422314513
 N         -2.2202874866       -0.3180490007        2.1382578707
 S         -2.0120169628       -1.5773091739        1.0455634908
 O         -2.4588144987       -2.7631349747        1.7457411056
 O         -0.6561588438       -1.5943579904        0.5650338651
 C         -3.1663236589       -1.1915859785       -0.2584505752
 C         -2.8171653685       -0.2759654654       -1.2305540984
 C         -3.7675953802        0.0833948960       -2.1751226717
 C         -5.0377044759       -0.4696065851       -2.1309859881
 C         -5.3705750352       -1.3895456185       -1.1475943034
 C         -4.4294088362       -1.7500906720       -0.1977753682
 H         -4.6399751377       -2.4617054214        0.5844612854
 H         -6.3578349546       -1.8215852164       -1.1162020200
 H         -5.7709212179       -0.1822943187       -2.8680800827
 H         -3.5001551892        0.7986073339       -2.9363971889
 H         -1.8213417902        0.1401833189       -1.2540613033
 H         -3.1483428654       -0.3844143538        2.5350605333
 H         -3.9160603874        1.7234149137        1.6942271149
 H         -3.2742320365        3.9168879351        0.7592361096
 H         -0.9503586845        4.3598990065        0.1078563362
 C          1.2133405058        2.6378972819        0.3274732095
 H          1.8090031222        2.8391237074        1.2307894550
 C          1.4122218253        3.7758371965       -0.6526899646
 C          1.6452397446        5.1722834816       -0.1602209990
 C          2.7710238258        4.3959803105       -0.7722641751
 H          3.1243253933        4.6792563570       -1.7523265440
 H          3.5457695313        4.0150777744       -0.1228333363
 H          1.6633859988        5.3302316221        0.9075343504
 H          1.2279432628        5.9937517989       -0.7228571327
 H          0.8419118142        3.6401030615       -1.5648645010
 O          3.4944605726        1.2480427420        1.3413956704
