  62
        -98.94170166
 C          2.4151276063        0.7592310679       -0.4075799922
 C          3.1437859349       -0.0480096403        0.5048713095
 C          3.3020258745       -1.4605532874        0.1500758590
 C          2.7643942090       -1.9202337136       -0.9937356408
 C          2.8390152219       -3.3344215317       -1.5027118034
 C          1.7747393915       -4.2639834269       -0.9036942335
 C          2.0100235128       -4.6664072779        0.5528352553
 H          1.3294058050       -5.4918295763        0.7702858051
 H          3.0272237812       -5.0433621115        0.6647588524
 C          1.7601479791       -3.5420667803        1.5679424841
 H          1.1670845573       -2.7514346127        1.0998696351
 H          1.1687819924       -3.9294651740        2.4009024670
 C          3.0292901169       -2.9302552553        2.1619566649
 H          3.5552364099       -3.6822905012        2.7545624299
 H          2.7352412839       -2.1168650927        2.8301122324
 C          4.0031793489       -2.3595371133        1.1234622910
 H          4.7507458813       -1.7597673870        1.6483789150
 H          4.5088161902       -3.1681039605        0.5960595722
 H          0.7990648952       -3.7793336935       -0.9943103607
 H          1.7548208653       -5.1715829859       -1.5117664965
 H          2.6854911043       -3.2843174747       -2.5828744198
 H          3.8320082788       -3.7420429844       -1.3100681745
 O          2.0906039339       -1.1151153564       -1.8550239803
 C          1.8749395783        0.2303538621       -1.5805863695
 O          1.2222579611        0.8127203727       -2.4696726590
 H         -0.3079226539        1.4552570610       -0.7054646986
 C         -0.2705831101        1.8947781305        0.2801674468
 C          0.9350846798        2.3443271061        0.8002687061
 C          0.9481127764        2.9081014833        2.0707292271
 C         -0.2176633278        3.0079894498        2.8089161247
 C         -1.4120019549        2.5326092040        2.3002870481
 C         -1.4363598831        1.9718112975        1.0274542701
 N         -2.6362152517        1.4925336843        0.4790971215
 S         -2.5778211517        0.1000735241       -0.4789931903
 O         -1.6302836769       -0.8425384187        0.0729309997
 O         -2.3918114303        0.4886439100       -1.8533796786
 C         -4.2471557655       -0.4918011571       -0.2587950070
 C         -4.5048059526       -1.4907171895        0.6604177764
 C         -5.8136492265       -1.9078882804        0.8479462929
 C         -6.8371222667       -1.3191718988        0.1207464149
 C         -6.5630476963       -0.3176011231       -0.7990121456
 C         -5.2568374914        0.1024920322       -0.9926834300
 H         -4.9925114241        0.8694508534       -1.7019543724
 H         -7.3604206092        0.1364188524       -1.3648329453
 H         -7.8544764682       -1.6445723979        0.2697710043
 H         -6.0290160474       -2.6884242414        1.5596792342
 H         -3.6759189451       -1.9222909908        1.1984357002
 H         -3.3881160740        1.4491449372        1.1537748913
 H         -2.3201612653        2.5925939211        2.8806587611
 H         -0.1931889408        3.4448290689        3.7956137678
 H          1.8848766582        3.2490711468        2.4859575009
 C          2.2116813313        2.2073016231        0.0033847481
 H          3.0490008632        2.4368265566        0.6777464686
 C          2.2309199099        3.2030052699       -1.1381836646
 C          2.5863468524        4.6299343010       -0.8498257552
 C          3.5403655997        3.7579599852       -1.6084839816
 H          3.6737084553        3.9290405298       -2.6659302006
 H          4.4345050976        3.4204985996       -1.1047868101
 H          2.0626015235        5.4066710663       -1.3852211135
 H          2.8372639785        4.8878643767        0.1678042471
 H          1.4731747970        3.0122754998       -1.8870091802
 O          3.6515032973        0.4012908028        1.5680630210
