  62
        -98.93849105
 C         -1.5569591239       -0.8962229029        0.9024239070
 C         -2.1489590151       -0.3521013775       -0.2624857518
 C         -2.5031190553        1.0821297837       -0.2160026921
 C         -2.1501287137        1.8092460109        0.8561442186
 C         -2.3293659230        3.2856942299        1.0847729295
 C         -1.1121110859        4.0734910141        0.5696510322
 C         -1.2098396723        4.5276241982       -0.8846927257
 H         -1.9917039277        5.2855219716       -0.9748846861
 H         -0.2587021184        4.9997015440       -1.1423161193
 C         -1.4840062943        3.4083618792       -1.8914287853
 H         -0.8560947718        2.5451644012       -1.6590543427
 H         -1.1790032670        3.7645998590       -2.8780652214
 C         -2.9612430864        2.9928385586       -1.9463196880
 H         -3.3029717089        3.0098876554       -2.9839487549
 H         -3.5635085868        3.7270910894       -1.4111816014
 C         -3.2589087790        1.5872427331       -1.4150528127
 H         -4.3314757695        1.5093201659       -1.2002398732
 H         -3.0454162315        0.8557962650       -2.2015696436
 H         -0.9756050198        4.9588922679        1.1944503916
 H         -0.2238494649        3.4467388990        0.6872255292
 H         -3.2479947134        3.6407135047        0.6272915933
 H         -2.4020844440        3.4221372394        2.1660768713
 O         -1.4906663495        1.2655305336        1.9184061809
 C         -1.1853064513       -0.0817712417        1.9729204003
 O         -0.5815579703       -0.4265715641        3.0090597005
 O         -2.3874735647       -1.0209846749       -1.3014528469
 C         -1.1069243003       -2.3485540083        0.9731528451
 C         -0.2779280327       -2.6320419647       -0.2550213448
 C         -0.5402907531       -3.6318255961       -1.1799206261
 C          0.2445701256       -3.7478177749       -2.3152675996
 C          1.2782862567       -2.8630268186       -2.5622780945
 C          1.5529617356       -1.8635291567       -1.6346670360
 C          0.8010212155       -1.7852054497       -0.4768797939
 H          1.0151245013       -1.0130125132        0.2472661157
 N          2.5853175120       -0.9357210249       -1.8368055337
 S          2.4276034527        0.6251735368       -1.2499142763
 O          1.0592585117        1.0833885710       -1.2549457628
 O          3.3584613959        1.3975094919       -2.0475323290
 C          3.0548538847        0.5202683268        0.4124656624
 C          2.3028374423        1.0008110097        1.4649070753
 C          2.8082991905        0.9095735669        2.7518511389
 C          4.0572607992        0.3460691264        2.9610889909
 C          4.8065309962       -0.1241844392        1.8925866844
 C          4.3033277797       -0.0381764616        0.6048763297
 H          4.8530767650       -0.3918879749       -0.2511789073
 H          5.7776723607       -0.5608370991        2.0612502109
 H          4.4456749623        0.2726218121        3.9646211920
 H          2.2132330337        1.2637138802        3.5784318251
 H          1.3269250158        1.4185721686        1.2673055434
 H          3.0152120812       -0.9604065779       -2.7496145152
 H          1.8612265819       -2.9342239531       -3.4679671207
 H          0.0293752083       -4.5239490030       -3.0342648413
 H         -1.3755136904       -4.2964886036       -1.0314522279
 H         -0.4344566983       -2.3872962829        1.8465431467
 C         -2.2070274585       -3.3638057758        1.2331740004
 C         -3.4547280200       -2.9715109276        1.9660264353
 C         -3.5224838542       -3.3448358309        0.5170947602
 H         -3.9726613791       -4.2916631306        0.2557202732
 H         -3.6842978005       -2.5673417195       -0.2114959566
 H         -3.8596291535       -3.6554221829        2.6968469475
 H         -3.5688609476       -1.9296580139        2.2297598302
 H         -1.8001086641       -4.3420419874        1.4712624471
