  62
        -98.93291095
 C          2.2121895885        1.0781545044        0.2869297581
 C          2.1362460656        0.1138151319       -0.7461852920
 C          2.2178599990       -1.3059234376       -0.3359251199
 C          2.3998743014       -1.6047849116        0.9620853026
 C          2.5565656514       -2.9642793900        1.5894073020
 C          3.9409093327       -3.5845405195        1.3305292203
 C          4.4785721612       -3.4017208641       -0.0867942855
 H          4.4999412680       -2.3370512069       -0.3266620782
 H          5.5116878735       -3.7587730220       -0.0988240086
 C          3.7137763249       -4.1503154351       -1.1754887153
 H          4.2324428538       -3.9710930922       -2.1206121421
 H          3.7561896422       -5.2223177499       -0.9699014940
 C          2.2477563139       -3.7521778773       -1.3541904160
 H          1.8950771714       -4.2087105595       -2.2838853726
 H          1.6320664516       -4.1612440828       -0.5575058835
 C          2.0019486458       -2.2525783976       -1.4916936813
 H          2.6096476071       -1.8632669748       -2.3167651124
 H          0.9587108321       -2.0948841206       -1.7987741386
 H          3.8928996418       -4.6479889635        1.5699044087
 H          4.6506261822       -3.1150672192        2.0157477391
 H          2.4304802084       -2.8281268138        2.6658227050
 H          1.7608425856       -3.6194081878        1.2461726506
 O          2.5247661706       -0.6394099149        1.9182107901
 C          2.3791649216        0.6985899182        1.6195921599
 O          2.4422297629        1.4568551007        2.6108492748
 H         -0.1732809107        1.1198278646       -0.7263303537
 C         -0.4546907062        1.9931643619       -0.1577795042
 C          0.5170333459        2.8644517624        0.3119307183
 C          0.1146340325        3.9838971536        1.0310832090
 C         -1.2272553339        4.2161433552        1.2777243893
 C         -2.1891874100        3.3226079957        0.8420977837
 C         -1.7957059467        2.1988688944        0.1243985702
 N         -2.7279327218        1.2489892273       -0.3261204796
 S         -2.2642073330       -0.3773114950       -0.2069362921
 O         -1.5101076463       -0.5880084265        1.0084595338
 O         -1.6319801955       -0.7769785863       -1.4382239294
 C         -3.8679268501       -1.1506925133       -0.0857956150
 C         -4.3873702564       -1.4375213327        1.1624365551
 C         -5.6531176755       -1.9959521081        1.2497260401
 C         -6.3756287777       -2.2524008475        0.0940267675
 C         -5.8407547236       -1.9597581436       -1.1518544224
 C         -4.5751723294       -1.4028244594       -1.2463217806
 H         -4.1137573898       -1.1656616385       -2.1907727786
 H         -6.4038684475       -2.1630196266       -2.0483150381
 H         -7.3608094768       -2.6853921456        0.1650794376
 H         -6.0695157731       -2.2275114201        2.2167806579
 H         -3.7851527607       -1.2270035764        2.0319434306
 H         -3.6536454910        1.3962618077        0.0538743755
 H         -3.2333060485        3.4882494134        1.0599441778
 H         -1.5258931018        5.0899431842        1.8366445827
 H          0.8626444603        4.6600308888        1.4184544033
 C          1.9769490083        2.5648136173        0.0722557029
 H          2.5499594930        3.0746166050        0.8643608116
 C          2.4778775171        3.0907147172       -1.2639792547
 C          1.5653054554        3.4255126418       -2.4012070432
 C          2.2461128673        4.5235474576       -1.6442679518
 H          3.0474993681        5.0632936742       -2.1253824954
 H          1.6391650134        5.1243682453       -0.9844792386
 H          1.9014401029        3.1863828372       -3.3982876578
 H          0.5054247156        3.2810241873       -2.2575285600
 H          3.4396888274        2.6651380009       -1.5293829563
 O          2.0126072924        0.3936894907       -1.9667810228
