  62
        -98.93567543
 C          2.3567131874        1.2736936054        0.1727318003
 C          3.2767825467        0.6065857204        1.0177461593
 C          4.0566148223       -0.4902495106        0.4181300364
 C          3.8312025673       -0.8221283844       -0.8645685144
 C          4.4678452716       -1.9371197859       -1.6472454034
 C          3.6019783644       -3.2069801581       -1.5857984607
 C          3.8715464566       -4.1140626304       -0.3854652272
 H          3.1071521678       -4.8947393517       -0.3913889981
 H          4.8397842365       -4.6020480522       -0.5152510073
 C          3.8537897765       -3.4194547185        0.9788670599
 H          3.6835138755       -4.1831817389        1.7403670251
 H          3.0121257418       -2.7253510436        1.0259454920
 C          5.1625671113       -2.6813933934        1.2984671768
 H          5.5179556766       -2.9882727316        2.2842376307
 H          5.9264446099       -2.9888351593        0.5846473579
 C          5.0638188975       -1.1486352332        1.3211196764
 H          4.7900936254       -0.8167061817        2.3276283838
 H          6.0512896722       -0.7249863889        1.1100251437
 H          3.7695900751       -3.7899684394       -2.4937658614
 H          2.5525344626       -2.8985784329       -1.5873843631
 H          4.5163546993       -1.6005927894       -2.6849574611
 H          5.4760130419       -2.1307086182       -1.2929922339
 O          2.9052052724       -0.1855133606       -1.6317244242
 C          2.1385309773        0.8626903217       -1.1435467513
 O          1.3273866998        1.3194424326       -1.9689162967
 H          0.0985376223        0.2833447690        1.4588846719
 C         -0.5082582271        0.9890324703        0.9030102792
 C          0.0710611771        2.1730475273        0.4620609536
 C         -0.7117821218        3.0633825191       -0.2592666064
 C         -2.0348805430        2.7647373604       -0.5358988096
 C         -2.6053344255        1.5837182211       -0.0986461193
 C         -1.8303849400        0.6847297190        0.6227283095
 N         -2.4017741528       -0.5175169230        1.0804150991
 S         -3.1927635963       -1.4859017444       -0.0426868511
 O         -3.1318906571       -2.8225030232        0.5100327301
 O         -2.6544511888       -1.3165626029       -1.3724239722
 C         -4.8765736447       -0.9107613609        0.0196351378
 C         -5.5121322149       -0.5157974873       -1.1410467029
 C         -6.8261768517       -0.0794705130       -1.0699034474
 C         -7.4772358449       -0.0470151523        0.1537413615
 C         -6.8250866708       -0.4493213160        1.3099925882
 C         -5.5122366149       -0.8878370392        1.2457603885
 H         -4.9703593988       -1.2118021707        2.1185123310
 H         -7.3346890755       -0.4224733935        2.2596382192
 H         -8.4989519062        0.2943961835        0.2064043434
 H         -7.3343196889        0.2335158057       -1.9678600741
 H         -4.9623390331       -0.5516539702       -2.0682432853
 H         -1.7676731786       -1.0769905414        1.6330985223
 H         -3.6326398256        1.3451584440       -0.3210275662
 H         -2.6298192597        3.4613073046       -1.1067073868
 H         -0.2783477611        3.9770361523       -0.6309910635
 C          1.5290498779        2.3948214332        0.7772560581
 H          1.6611311946        2.2704868075        1.8654832253
 C          2.0189232498        3.7953039970        0.4443815738
 C          3.4660024288        4.0552823327        0.1533479782
 C          2.4458824134        4.1974341420       -0.9342283570
 H          2.1989938299        5.1923738109       -1.2751752873
 H          2.4068662190        3.4486666134       -1.7094000018
 H          4.1305015612        3.2038202115        0.1225857712
 H          3.9188678769        4.9483209866        0.5570663294
 H          1.5062003343        4.5499672842        1.0329499520
 O          3.4318651592        0.9065633673        2.2327494164
