  62
        -98.94735119
 C          1.7992563981        1.1245121075       -0.4509195336
 C          1.2827888922        1.8400617226        0.6594095270
 C          0.1873183497        2.7810216065        0.3629215979
 C         -0.2759218196        2.8937524404       -0.8938466279
 C         -1.4233640593        3.7619191699       -1.3194149414
 C         -2.7576614530        3.0065109565       -1.2552193611
 C         -3.0148869098        2.3024412133        0.0773957302
 H         -4.0129744762        1.8607867481        0.0256607165
 H         -2.3126237287        1.4750819803        0.2001110914
 C         -2.9212895652        3.2113600249        1.3102973027
 H         -3.0108605570        4.2577564568        1.0138177491
 H         -3.7596659121        2.9867684820        1.9730826216
 C         -1.6446175392        3.0177926558        2.1313579149
 H         -1.7820529254        3.5109781839        3.0980646382
 H         -1.4978850705        1.9519515583        2.3257667862
 C         -0.3600818336        3.5821471517        1.5101938569
 H         -0.5220899246        4.6202386060        1.2092348561
 H          0.4142179207        3.5652190511        2.2831365340
 H         -3.5622663347        3.7183350910       -1.4493372057
 H         -2.7707623498        2.2528727475       -2.0459351001
 H         -1.4618815578        4.6418164282       -0.6800566381
 H         -1.2471680158        4.0794871477       -2.3487529531
 O          0.2399220458        2.1897384245       -1.9335087215
 C          1.2775521387        1.2940454692       -1.7371647619
 O          1.6491235368        0.7132252339       -2.7766451586
 O          1.6979886235        1.7243408774        1.8421026985
 C          2.8960899718        0.0753972795       -0.3554681474
 C          2.2987226932       -1.2966961601       -0.1369548615
 C          2.7796783380       -2.4009502569       -0.8310814660
 C          2.2099236004       -3.6482651170       -0.6517101757
 C          1.1278737738       -3.8110491530        0.1947496978
 C          0.6377255317       -2.7135472123        0.8924332346
 C          1.2445118294       -1.4740011728        0.7468011240
 H          0.8688710345       -0.6392865051        1.3181027371
 N         -0.4835037568       -2.8343281769        1.7342614096
 S         -1.7528150000       -1.7603854780        1.5250461815
 O         -1.3768815684       -0.4472975616        1.9743951067
 O         -2.8642957497       -2.3794940192        2.2140180040
 C         -2.0591311321       -1.7589816822       -0.2313413754
 C         -2.9531049320       -2.6733071820       -0.7536679121
 C         -3.1449335367       -2.7147885631       -2.1250661030
 C         -2.4329533487       -1.8559156921       -2.9494824093
 C         -1.5374458649       -0.9449372647       -2.4110475759
 C         -1.3506476906       -0.8931545598       -1.0390513833
 H         -0.6607823506       -0.1927895598       -0.5946189507
 H         -0.9678795791       -0.2799438388       -3.0425206038
 H         -2.5744214936       -1.8936178649       -4.0180819810
 H         -3.8434522161       -3.4184377188       -2.5484357781
 H         -3.4878455549       -3.3194028339       -0.0763600078
 H         -0.8410454877       -3.7765928140        1.8079172551
 H          0.6627120484       -4.7775943898        0.3146306538
 H          2.5957107618       -4.4981022958       -1.1933496644
 H          3.5957873799       -2.2735990512       -1.5260483863
 H          3.3872360659        0.0648007233       -1.3390952460
 C          3.9494226362        0.3606982196        0.6963129583
 C          5.3378921176       -0.1681358799        0.5044916234
 C          5.0706827520        1.3010574930        0.3771771970
 H          5.4199981328        1.9645722108        1.1536499841
 H          5.0881197660        1.7391700874       -0.6104175166
 H          5.8764881030       -0.5195440364        1.3710063131
 H          5.5472451233       -0.7218830018       -0.3979683134
 H          3.5537734525        0.3848989705        1.7031152733
