  62
        -98.94491209
 C         -1.8463333869       -0.4020179458        0.0695045247
 C         -2.9201903255       -0.4778637842        0.9972744797
 C         -4.0735842457        0.3926613152        0.7413789065
 C         -4.0487002335        1.2162429347       -0.3218161916
 C         -5.1720034090        2.1210445595       -0.7353162606
 C         -6.1153743369        1.4201203025       -1.7230015341
 C         -6.5608135990        0.0294433079       -1.2706694829
 H         -7.2463221770       -0.3547647848       -2.0291202851
 H         -5.6937848926       -0.6348416955       -1.2550705363
 C         -7.2472251175       -0.0024827084        0.1020545624
 H         -8.1372173112       -0.6316318324        0.0339018821
 H         -7.5800334820        1.0000224120        0.3735149343
 C         -6.3845467721       -0.5724315035        1.2296448198
 H         -7.0299253951       -0.7520500803        2.0935774200
 H         -5.9722983717       -1.5371490506        0.9234443282
 C         -5.2278975104        0.3182916701        1.7006353976
 H         -5.6028855739        1.3179490620        1.9298138637
 H         -4.8259389137       -0.1168816419        2.6202214103
 H         -5.6008172203        1.3198927747       -2.6815131287
 H         -6.9910840895        2.0542840940       -1.8726346589
 H         -5.7227182003        2.4345800726        0.1495001208
 H         -4.7449056250        3.0023588349       -1.2170391410
 O         -2.9981939393        1.2805902196       -1.1754081839
 C         -1.8784991308        0.4770292856       -1.0128653400
 O         -1.0131456698        0.6595564793       -1.8940804825
 H          0.7907503908        0.7322934811       -0.6566845321
 C          1.1385719160        0.4255342463        0.3184413477
 C          0.4850203596       -0.6037825883        0.9812236915
 C          0.9408789813       -0.9774473592        2.2397155907
 C          2.0233599324       -0.3369052624        2.8183251235
 C          2.6728677323        0.6875894223        2.1537883727
 C          2.2183117407        1.0728368624        0.8993020665
 N          2.8861136299        2.1046374146        0.2050282552
 S          4.5065968803        1.8023926236       -0.1068009916
 O          5.2747121785        2.0666590968        1.0840706898
 O          4.8407779554        2.5991111515       -1.2659301840
 C          4.5615879541        0.0617827520       -0.4928633501
 C          4.0046941583       -0.3556249540       -1.6853241219
 C          3.9680600934       -1.7105795736       -1.9696513079
 C          4.4791595164       -2.6207725645       -1.0571672244
 C          5.0346652966       -2.1855448011        0.1356648133
 C          5.0750193181       -0.8311364242        0.4252892751
 H          5.4965867726       -0.4496863198        1.3406009357
 H          5.4311740736       -2.8963974045        0.8423782945
 H          4.4447408070       -3.6759709759       -1.2784002581
 H          3.5365881792       -2.0492592123       -2.8981775815
 H          3.6179640020        0.3796174158       -2.3732160363
 H          2.4141990063        2.3633503028       -0.6503938627
 H          3.5229487783        1.1941028105        2.5816865819
 H          2.3656697209       -0.6389813696        3.7962187917
 H          0.4337241046       -1.7703667767        2.7695016629
 C         -0.6675734844       -1.3263559165        0.3260714384
 H         -1.0424602227       -2.0708412148        1.0409567496
 C         -0.1883471394       -2.0525196106       -0.9169715886
 C          0.6060294933       -3.3127004688       -0.7591917361
 C         -0.7983926769       -3.3717532413       -1.2791532017
 H         -0.9569390623       -3.5959031914       -2.3233679102
 H         -1.5682445396       -3.7617972554       -0.6291885192
 H          1.4176161122       -3.4966441869       -1.4452755417
 H          0.7897828582       -3.6644016921        0.2443661327
 H          0.0757143442       -1.3872734368       -1.7283969267
 O         -2.9132513916       -1.2486800322        1.9935692703
