  62
        -98.94593659
 C          1.2173163169        0.9208818501       -0.5017669706
 C          2.3412611773        1.2220979619        0.3104051234
 C          3.1302959123        0.0824953912        0.7919270594
 C          2.7326765465       -1.1647288492        0.4827355984
 C          3.4598434538       -2.4187541965        0.8722147722
 C          4.4713297384       -2.8348410715       -0.2051462301
 C          5.3821119668       -1.6976649631       -0.6679265472
 H          6.0720023125       -2.1132624017       -1.4054680273
 H          4.7785963225       -0.9444316103       -1.1792632310
 C          6.1809381012       -1.0261525731        0.4577641575
 H          6.2008869360       -1.6734252106        1.3352918839
 H          7.2133857338       -0.8973335554        0.1261588890
 C          5.6673349381        0.3571558792        0.8616277002
 H          5.5563809749        0.9811721037       -0.0286332708
 H          6.4211340442        0.8271044183        1.4989370188
 C          4.3408545830        0.3786978544        1.6320479275
 H          4.3962669168       -0.3053943991        2.4817642324
 H          4.1958519786        1.3921788192        2.0178106393
 H          5.0778062561       -3.6524451290        0.1888186800
 H          3.9201313024       -3.2064799110       -1.0718666284
 H          3.9683808535       -2.2557039172        1.8206898632
 H          2.7249848671       -3.2156912711        0.9998748103
 O          1.6374913490       -1.4206527350       -0.2720717528
 C          0.8516595668       -0.3961184904       -0.7839782840
 O         -0.1079686512       -0.8075502353       -1.4643498472
 H         -1.5413164079        0.4040308055       -0.1832615341
 C         -1.6388570772        1.3705283608        0.2834002067
 C         -0.7345172515        2.3770335950       -0.0233836050
 C         -0.8822199303        3.6172078948        0.5861154252
 C         -1.9034763255        3.8364682958        1.4937810564
 C         -2.7780375741        2.8183985503        1.8280389589
 C         -2.6372169609        1.5744731091        1.2229705312
 N         -3.4974544835        0.5123523512        1.5360791318
 S         -2.8899552539       -1.0494607575        1.5861526204
 O         -3.8272346439       -1.7645256444        2.4318282904
 O         -1.5137178186       -1.0755137294        2.0282736080
 C         -3.0581382732       -1.6694524156       -0.0719911109
 C         -4.0699464937       -1.1847643679       -0.8763386539
 C         -4.2252851320       -1.7161744252       -2.1460685428
 C         -3.3771750254       -2.7217560066       -2.5837302065
 C         -2.3708492974       -3.2006667638       -1.7609873847
 C         -2.2070888238       -2.6705774167       -0.4915097156
 H         -1.4231710211       -3.0014779102        0.1714620752
 H         -1.7043242236       -3.9755925022       -2.1041509702
 H         -3.4971201449       -3.1320081465       -3.5742661199
 H         -5.0040073419       -1.3419765146       -2.7912905748
 H         -4.7063854106       -0.3978435077       -0.5068606245
 H         -4.1453804810        0.6884305630        2.2902202699
 H         -3.5585631018        2.9791323903        2.5560661900
 H         -2.0081555208        4.8038177911        1.9611892994
 H         -0.1781121673        4.4045981905        0.3611618951
 C          0.3991121124        2.1075974037       -0.9844862284
 H          1.0820862399        2.9673672713       -0.9428402984
 C         -0.1202273144        1.9737556624       -2.4020144427
 C         -0.4581541604        3.2140952536       -3.1717441333
 C          0.7462763914        2.4043940737       -3.5456982438
 H          0.7207680537        1.8245685962       -4.4558376325
 H          1.7223879392        2.8035256715       -3.3105194177
 H         -1.3148698209        3.1938039772       -3.8272135815
 H         -0.2973104524        4.1647796745       -2.6864848387
 H         -0.7427525695        1.1013853154       -2.5501013877
 O          2.6744635894        2.4008130137        0.6121060682
