  62
        -98.94094767
 C         -2.6723512994       -1.0410811758       -0.4231442476
 C         -2.0729627509        0.0685970037       -1.0675348712
 C         -2.8059422199        1.3399208057       -0.9696252795
 C         -3.9784172395        1.3814314672       -0.3121320817
 C         -4.7958848434        2.6197876754       -0.0887630268
 C         -4.4176104699        3.3016784352        1.2335369056
 C         -2.9126860965        3.4962221025        1.4219540968
 H         -2.7682089428        4.0146586054        2.3724984532
 H         -2.4318025322        2.5192026153        1.5169472661
 C         -2.2281042016        4.2886973327        0.2996087188
 H         -1.5506110548        5.0168922538        0.7504393116
 H         -2.9740950754        4.8461949971       -0.2682717048
 C         -1.3915549694        3.4390100395       -0.6590746965
 H         -0.7036377614        2.8103634824       -0.0859015750
 H         -0.7847519892        4.1148727455       -1.2679161125
 C         -2.1852438142        2.5441427769       -1.6198532961
 H         -2.9425433587        3.1387151972       -2.1346451696
 H         -1.4861280265        2.1551829361       -2.3657540715
 H         -4.7877852393        2.6881808582        2.0581713150
 H         -4.9188214972        4.2702060346        1.2786353640
 H         -5.8486442692        2.3350039985       -0.0518770093
 H         -4.6431665168        3.3052877974       -0.9198799674
 O         -4.5343946561        0.2908001365        0.2742333389
 C         -3.8877400262       -0.9321791454        0.2582332395
 O         -4.4911142019       -1.8378722214        0.8675118158
 O         -0.9865070846        0.0175543458       -1.7025367214
 C         -1.9920432619       -2.4019958611       -0.3783172257
 C         -0.7897738135       -2.2681104270        0.5245102578
 C         -0.9494768843       -2.4082047157        1.9001535231
 C          0.1105488651       -2.1870370379        2.7599356345
 C          1.3478814872       -1.8086640475        2.2681031474
 C          1.5133367711       -1.6590832514        0.8982331753
 C          0.4554089571       -1.9073921092        0.0340443530
 H          0.5922870286       -1.7691654941       -1.0266085596
 N          2.7633280211       -1.2492667540        0.3871578829
 S          3.4003679023        0.1477475838        1.1000387527
 O          4.0764377979       -0.2344284459        2.3155283785
 O          2.3702737933        1.1524283582        1.2445738095
 C          4.5943615738        0.6443172560       -0.1258458250
 C          5.9008502713        0.2095024433       -0.0131900713
 C          6.8135903763        0.5732239608       -0.9906902798
 C          6.4061072127        1.3586743512       -2.0584977938
 C          5.0905925982        1.7869662896       -2.1580628397
 C          4.1724220433        1.4265270159       -1.1844866513
 H          3.1414472312        1.7431811971       -1.2195281136
 H          4.7759766462        2.3981125594       -2.9887422380
 H          7.1175944057        1.6410777695       -2.8183147672
 H          7.8372590448        0.2434806006       -0.9170280213
 H          6.1709346709       -0.3936292353        0.8377566299
 H          2.7159084690       -1.1223124042       -0.6160749924
 H          2.1764612807       -1.6032740657        2.9268012489
 H         -0.0287599196       -2.2988809016        3.8249888583
 H         -1.9241542457       -2.6704024041        2.2886105004
 H         -2.7074577524       -3.0802406254        0.1046176257
 C         -1.6706505623       -2.9357971157       -1.7582685181
 C         -1.2992445264       -4.3792281081       -1.9120818003
 C         -2.6234779037       -3.8883485924       -2.4128728636
 H         -2.7765137717       -3.8110095453       -3.4788487008
 H         -3.5124564271       -4.1625163323       -1.8637107224
 H         -0.5420344755       -4.6435856479       -2.6341219662
 H         -1.2881244640       -4.9868827036       -1.0198387978
 H         -1.1799699172       -2.2141129900       -2.3982904618
