  62
        -98.94041284
 C          2.0745251153        1.0220362978        0.0583406925
 C          2.3668798108       -0.3607684971        0.1661747831
 C          3.7198376296       -0.6892296929        0.6417472392
 C          4.5717056482        0.2909225683        0.9887481413
 C          5.9735684672        0.1096831449        1.5040351390
 C          7.0236175344       -0.0790231432        0.4005851493
 C          6.9881954151       -1.4343616916       -0.3068925226
 H          7.9047272628       -1.5124742373       -0.8951242073
 H          7.0100759846       -2.2317369159        0.4366687160
 C          5.7853362464       -1.6314878284       -1.2400886621
 H          5.3343214553       -0.6617093157       -1.4629853974
 H          6.1258255100       -2.0508692112       -2.1895211717
 C          4.7057821650       -2.5659193727       -0.6935231412
 H          5.1122744942       -3.5744345952       -0.5897448737
 H          3.8882767647       -2.6072913324       -1.4180951464
 C          4.1208555705       -2.1334660308        0.6575177208
 H          3.2221116361       -2.7253772040        0.8486001680
 H          4.8390400121       -2.3210558120        1.4554632062
 H          6.9045914849        0.7194806544       -0.3355270277
 H          8.0064312540        0.0395272010        0.8625776431
 H          6.2190441600        1.0160261512        2.0618414130
 H          6.0061917176       -0.7385823063        2.1883786937
 O          4.2320240314        1.6059265050        0.9269222186
 C          2.9912199461        2.0007028691        0.4545492277
 O          2.8213648863        3.2363164121        0.4445539229
 H         -0.9860212547       -0.3819143276       -1.4311377484
 C         -1.1759244065       -0.1468703091       -0.3956083622
 C         -0.3870055395        0.7887941392        0.2540851949
 C         -0.6325686389        1.0490598101        1.5990210410
 C         -1.6331182583        0.3799069806        2.2783111669
 C         -2.4108414734       -0.5631970610        1.6302443446
 C         -2.1730179578       -0.8301179762        0.2886068820
 N         -2.9568908213       -1.7884213869       -0.3734393482
 S         -4.6096276914       -1.7688064424       -0.1363647714
 O         -4.9359704708       -2.4062182121        1.1150643815
 O         -5.1705243056       -2.3800935024       -1.3209079423
 C         -5.0400691638       -0.0383762908       -0.0625852994
 C         -4.7900359609        0.7398819454       -1.1757546347
 C         -5.0786532638        2.0936264970       -1.1261864616
 C         -5.6085887618        2.6443767788        0.0308965123
 C         -5.8585501239        1.8491746295        1.1381334604
 C         -5.5703157535        0.4942700122        1.0943621183
 H         -5.7474235819       -0.1591358989        1.9330102913
 H         -6.2730263584        2.2796583301        2.0354596573
 H         -5.8285073976        3.6996711526        0.0679973956
 H         -4.8871997098        2.7144893366       -1.9866719613
 H         -4.3845428863        0.2787528627       -2.0619442728
 H         -2.7130219839       -1.9267547961       -1.3423911905
 H         -3.1826199891       -1.1095901586        2.1477566974
 H         -1.8071249986        0.5893535281        3.3228709518
 H         -0.0174637474        1.7780002742        2.1092276579
 C          0.7300078747        1.5293641862       -0.4373197761
 H          0.6887255477        2.5805991830       -0.1098007105
 C          0.5892306395        1.5445116691       -1.9526000619
 C          1.7630121883        1.8783219618       -2.8229642459
 C          1.1887433958        0.4950364290       -2.8376808319
 H          0.6329014045        0.1827397495       -3.7102698540
 H          1.7465236686       -0.3009687093       -2.3705223248
 H          2.7150627074        2.0333730467       -2.3361366777
 H          1.6043811607        2.5132161778       -3.6815806837
 H         -0.3688228105        1.9517895109       -2.2615765815
 O          1.5620350260       -1.2842639156       -0.1172691759
