  62
        -98.94186797
 C         -2.7766609144       -0.2687458754       -0.2614309056
 C         -2.0270316791        0.5511667786       -1.1398680898
 C         -2.0152153737        1.9881791945       -0.8295554902
 C         -2.7158002672        2.4493913796        0.2207260093
 C         -2.7526269233        3.8798526837        0.6722753801
 C         -1.6752802376        4.1648129228        1.7275593293
 C         -0.2772241471        3.6785123236        1.3434765906
 H          0.4028689632        3.9869537944        2.1411125664
 H         -0.2593300508        2.5854743163        1.3240412030
 C          0.2393006808        4.2108934728       -0.0001557433
 H         -0.3272526435        5.0958246318       -0.2939280649
 H          1.2800915186        4.5159928032        0.1266469358
 C          0.2098677046        3.1828087453       -1.1328362049
 H          0.8288405333        3.5586323598       -1.9524734578
 H          0.6533389436        2.2490227309       -0.7754256637
 C         -1.1778841222        2.8723273170       -1.7098434743
 H         -1.0378033546        2.3205070933       -2.6438543359
 H         -1.7012561715        3.8036077195       -1.9358880956
 H         -1.6485148922        5.2413389490        1.9078895551
 H         -1.9626992311        3.6711913624        2.6589210578
 H         -3.7338338933        4.0754345734        1.1085985670
 H         -2.6127350037        4.5300029134       -0.1891451326
 O         -3.4570567061        1.6409172877        1.0205544314
 C         -3.4771545893        0.2726503150        0.8217324438
 O         -4.1618935109       -0.3524549415        1.6570045677
 O         -1.3887258776        0.1321123649       -2.1439960812
 C         -2.8202439980       -1.7889074210       -0.3609960898
 C         -1.5639769555       -2.3386822681        0.2719771277
 C         -1.6068976605       -3.0866798596        1.4424203950
 C         -0.4379608096       -3.4867390208        2.0680350225
 C          0.7964880116       -3.1307062982        1.5532714256
 C          0.8454235020       -2.3883523129        0.3821589396
 C         -0.3234941086       -2.0212915870       -0.2624909049
 H         -0.2707392298       -1.4295626377       -1.1642609446
 N          2.1014482051       -1.9391879114       -0.1127444096
 S          2.6124167290       -0.6011569672        0.8004168584
 O          2.9456851626       -1.0734371076        2.1209149943
 O          1.6280378658        0.4570224971        0.7341742510
 C          4.0962623170       -0.1276297730       -0.0659388567
 C          4.0643992623        0.9437861836       -0.9370119115
 C          5.2185547422        1.2797331100       -1.6275838872
 C          6.3755003092        0.5390972787       -1.4392621804
 C          6.3904643711       -0.5358398910       -0.5625579734
 C          5.2409666568       -0.8757017285        0.1322614043
 H          5.2056497906       -1.6962616935        0.8292701248
 H          7.2925079632       -1.1083164200       -0.4187326370
 H          7.2715629748        0.8028564899       -1.9784965227
 H          5.2089663864        2.1157994376       -2.3082797744
 H          3.1437134921        1.4945922755       -1.0493582407
 H          1.9973408078       -1.6174690055       -1.0689861071
 H          1.7132352710       -3.3902927124        2.0567808356
 H         -0.4893100114       -4.0633404295        2.9793586043
 H         -2.5656111962       -3.3272072901        1.8791770026
 H         -3.6740003224       -2.1054446995        0.2527969385
 C         -3.0223482771       -2.3078525888       -1.7699954135
 C         -3.5440021975       -3.6994776826       -1.9590864742
 C         -4.4151872857       -2.5223692472       -2.2773486966
 H         -4.6255570193       -2.2976387216       -3.3120586548
 H         -5.2312750231       -2.2948122782       -1.6068216982
 H         -3.1555212308       -4.2876778571       -2.7760799518
 H         -3.7714897183       -4.2726182940       -1.0729750463
 H         -2.2887955237       -1.9426533457       -2.4758102983
