  62
        -98.94489125
 C          2.5692319833        0.1306322898        0.0511902893
 C          2.3851144410       -0.8687146844        1.0349740194
 C          2.1871961890       -2.2355448084        0.5372092304
 C          2.2002964411       -2.4601458289       -0.7892662682
 C          2.0157382787       -3.8028808082       -1.4345634187
 C          0.5484139327       -4.0711636124       -1.7917863655
 C         -0.4324366879       -3.8164496038       -0.6468516929
 H         -0.4827022369       -2.7445391554       -0.4405182672
 H         -1.4228803921       -4.1127578533       -1.0003386570
 C         -0.1132491202       -4.5718339216        0.6504753774
 H         -1.0442886968       -4.9774315634        1.0521656577
 H          0.5450187123       -5.4156480420        0.4384209594
 C          0.5042628379       -3.7100064639        1.7540040599
 H         -0.0828951674       -2.7938532500        1.8697892620
 H          0.4385913010       -4.2627417559        2.6955477986
 C          1.9749203282       -3.3202173638        1.5547173413
 H          2.5612258124       -4.2074725886        1.3054206685
 H          2.3455904467       -2.9177902453        2.5022864476
 H          0.2706402643       -3.4228993166       -2.6258794191
 H          0.4624110322       -5.1087015378       -2.1215969758
 H          2.6103017831       -3.8231430971       -2.3499206368
 H          2.3818366361       -4.5735444532       -0.7586639931
 O          2.3745029862       -1.4738880047       -1.7057163762
 C          2.5269019250       -0.1525974932       -1.3135169652
 O          2.6281683039        0.6544454162       -2.2577123186
 O          2.3973634311       -0.6284141257        2.2747296191
 C          2.7278828239        1.5742292922        0.4891009402
 C          1.5653267139        2.4015990113       -0.0054051152
 C          1.6919175061        3.7135003128       -0.4433948097
 C          0.5768486878        4.4199632449       -0.8619260423
 C         -0.6778839410        3.8402886580       -0.8552280478
 C         -0.8144448638        2.5242283422       -0.4234730265
 C          0.3005595189        1.8282014321        0.0099396707
 H          0.1838419240        0.8135100117        0.3608983761
 N         -2.0649411137        1.8862137168       -0.4583836899
 S         -2.3414182340        0.4958719219        0.4476353808
 O         -2.0740306430        0.7436974546        1.8482474607
 O         -1.6397520599       -0.6068141634       -0.1581451350
 C         -4.0953654620        0.3120028210        0.1885271840
 C         -4.5350089569       -0.3459324678       -0.9442772121
 C         -5.8982279499       -0.4608530487       -1.1659654918
 C         -6.7941409890        0.0825152178       -0.2571790000
 C         -6.3383093888        0.7376871757        0.8769510605
 C         -4.9761748468        0.8560561410        1.1042856374
 H         -4.5754981801        1.3462517534        1.9770297886
 H         -7.0370808521        1.1554575775        1.5836188996
 H         -7.8544328067       -0.0083061968       -0.4324027614
 H         -6.2557154396       -0.9730137062       -2.0446392260
 H         -3.8002506677       -0.7578212661       -1.6166399792
 H         -2.8485006441        2.5233057359       -0.4434711033
 H         -1.5430856891        4.3917090072       -1.1894472294
 H          0.6880558183        5.4392595923       -1.1995016520
 H          2.6625357113        4.1817163730       -0.4590113614
 H          2.6794617081        1.5515946251        1.5894207155
 C          4.0773169722        2.1205444960        0.0713509898
 C          4.7759592175        3.1444235618        0.9139587112
 C          5.2880631435        1.7372718686        0.8667972866
 H          6.2090788963        1.5373254306        0.3403923580
 H          5.1319082998        1.1052552841        1.7291382135
 H          5.3507827456        3.9130804308        0.4197534708
 H          4.2816281802        3.4714053750        1.8164032465
 H          4.1836179810        2.1802450026       -1.0058504659
