  62
        -98.94610101
 C         -1.9354104259       -1.2987216903        0.2554511342
 C         -1.7329512233        0.0918961265        0.0905874498
 C         -2.8971338237        0.9411154459        0.3714734199
 C         -4.0541928090        0.3809839581        0.7688776727
 C         -5.3221037988        1.1157517268        1.1104847648
 C         -6.1884011990        1.4660908654       -0.1071863573
 C         -5.6457329206        2.5899235673       -0.9910202370
 H         -6.4497632335        2.8787406700       -1.6708820864
 H         -5.4153007306        3.4579903050       -0.3726638693
 C         -4.4132806926        2.2043121215       -1.8211649761
 H         -4.5437455252        2.5503503376       -2.8490958461
 H         -4.3258102451        1.1159422741       -1.8598695731
 C         -3.0962443007        2.7884474467       -1.3102041600
 H         -3.1221277508        3.8772782343       -1.3932746337
 H         -2.2884456700        2.4210386765       -1.9484530169
 C         -2.7624020897        2.4158705833        0.1400548502
 H         -1.7213788444        2.6860774708        0.3322534554
 H         -3.4013408623        2.9695849023        0.8275244487
 H         -7.1688567756        1.7691660262        0.2674204752
 H         -6.3272712071        0.5645012770       -0.7083645585
 H         -5.0820015539        2.0255109875        1.6614139711
 H         -5.8974788812        0.4554221016        1.7628853225
 O         -4.2016995488       -0.9612771788        0.9309896426
 C         -3.1564674858       -1.8318985466        0.6673995734
 O         -3.4310828365       -3.0360154612        0.8455643511
 O         -0.6390132242        0.6004953776       -0.2654189131
 C         -0.7992790476       -2.2634366501       -0.0313992482
 C          0.4129518382       -1.8934957052        0.7877379649
 C          0.2677517263       -1.7237373033        2.1630498575
 C          1.3492642509       -1.3850389580        2.9519588133
 C          2.5991826047       -1.2000918525        2.3857493405
 C          2.7571736821       -1.3752105075        1.0171794592
 C          1.6703637312       -1.7323601272        0.2287125254
 H          1.8251532606       -1.8577978491       -0.8292729748
 N          4.0200632262       -1.2237041608        0.4149836309
 S          4.2252026160       -0.1754855368       -0.8742784434
 O          3.3744378980       -0.5653798627       -1.9677538777
 O          5.6485332323       -0.1957041078       -1.1342108301
 C          3.7661960704        1.4290804700       -0.2429533474
 C          4.7745253126        2.2969494819        0.1319770415
 C          4.4385786159        3.5281146012        0.6699181162
 C          3.1034528067        3.8666489960        0.8324909238
 C          2.1055832442        2.9816860218        0.4562704198
 C          2.4321793028        1.7484892646       -0.0874634339
 H          1.6601819680        1.0548619213       -0.3810507008
 H          1.0641442242        3.2329352007        0.5800896807
 H          2.8385554168        4.8241211179        1.2529661628
 H          5.2150674828        4.2171197547        0.9611373272
 H          5.7979821785        1.9922696078       -0.0166801090
 H          4.7715224535       -1.0849821099        1.0762507103
 H          3.4447144087       -0.9278523835        2.9992364615
 H          1.2187649687       -1.2559354199        4.0158293566
 H         -0.7113663284       -1.8589832828        2.6031355618
 H         -1.1473186144       -3.2534001134        0.2985572094
 C         -0.5285932690       -2.3168745755       -1.5207699632
 C          0.0366996716       -3.5581115507       -2.1405098432
 C         -1.3926515760       -3.1810462319       -2.3867869001
 H         -1.6706412641       -2.8179184425       -3.3649862531
 H         -2.1662378404       -3.7554674465       -1.8976024465
 H          0.7450435998       -3.4513324010       -2.9485595584
 H          0.2344731789       -4.3964675735       -1.4895659059
 H         -0.2156398308       -1.3609949632       -1.9268647501
