  62
        -98.94500132
 C         -2.5501320190       -0.1466767654        0.4414470632
 C         -2.4094474069        0.5347407244       -0.7912070508
 C         -2.2127536434        1.9877494883       -0.7009206847
 C         -2.1776933846        2.5752575887        0.5086560655
 C         -1.9778040040        4.0443643860        0.7438927086
 C         -0.4988403612        4.3983878968        0.9453736334
 C          0.4346921999        3.8320643685       -0.1249215766
 H          1.4355551158        4.2137136851        0.0909856546
 H          0.4870083002        2.7453348539       -0.0229498211
 C          0.0531611709        4.1948580815       -1.5666698251
 H          0.9618338497        4.4719726587       -2.1051908396
 H         -0.6043817512        5.0653928988       -1.5694735925
 C         -0.6012263181        3.0589552779       -2.3557026024
 H         -0.5818697004        3.3246424939       -3.4162417648
 H         -0.0127060152        2.1458085117       -2.2317505883
 C         -2.0571534312        2.7440884516       -1.9896365125
 H         -2.6419919383        3.6662933921       -1.9715768864
 H         -2.4645672917        2.0919499135       -2.7678050128
 H         -0.1773441123        4.0088026984        1.9143890492
 H         -0.4098144275        5.4867316254        0.9691271702
 H         -2.3805529290        4.5960488402       -0.1036845683
 H         -2.5317063487        4.3225872812        1.6426636582
 O         -2.3115569350        1.8861417983        1.6722428323
 C         -2.4764202509        0.5107245533        1.6674214479
 O         -2.5560835524       -0.0029316432        2.8042921046
 H         -0.1685892969       -0.8938649097        0.5013755317
 C         -0.2978942506       -1.7723777434       -0.1140832610
 C         -1.5667865387       -2.3156691400       -0.2659059514
 C         -1.7099041386       -3.4567339276       -1.0448002894
 C         -0.6074906882       -4.0234017640       -1.6618572994
 C          0.6504132931       -3.4680411223       -1.5220475765
 C          0.8033033177       -2.3220487238       -0.7473558868
 N          2.0576307407       -1.6998452365       -0.6350860477
 S          2.3573013457       -0.5900657421        0.5921842957
 O          2.1161219535       -1.1900175259        1.8875115483
 O          1.6478602766        0.6301566997        0.3043131414
 C          4.1068774014       -0.3431861030        0.3560906137
 C          5.0010130880       -1.0992081495        1.0905824986
 C          6.3596364520       -0.9238728731        0.8799243271
 C          6.7988659232       -0.0016141868       -0.0580371419
 C          5.8898141629        0.7516676538       -0.7860105582
 C          4.5299353437        0.5811994515       -0.5798999196
 H          3.7860570683        1.1487710511       -1.1146356997
 H          6.2346585749        1.4703765970       -1.5117236996
 H          7.8565004466        0.1334221224       -0.2202936243
 H          7.0684280620       -1.5051584026        1.4472971028
 H          4.6129919328       -1.7949972896        1.8171267522
 H          2.8371956069       -2.3207614850       -0.7987929652
 H          1.5056260367       -3.9055303142       -2.0135042134
 H         -0.7314487327       -4.9107786509       -2.2639558368
 H         -2.6841576477       -3.9001813203       -1.1708339314
 C         -2.7199567546       -1.6541203083        0.4513787509
 H         -2.6808635611       -1.9585027062        1.5089257071
 C         -4.0727305805       -2.0340099009       -0.1170086392
 C         -4.8061699269       -3.2333473305        0.4016208138
 C         -5.2890316287       -1.8558228442        0.7394662295
 H         -6.1968769994       -1.4964064093        0.2789688346
 H         -5.1337717157       -1.4886743167        1.7439977971
 H         -5.3883075729       -3.8213926515       -0.2918423130
 H         -4.3350871964       -3.8082975146        1.1847358653
 H         -4.1605718897       -1.7915896515       -1.1698617525
 O         -2.4566931755       -0.0397478715       -1.9108514233
