  62
        -98.94055248
 C         -2.3395625282        0.2086219848       -0.2645040918
 C         -3.5170660211        0.6118837191       -0.9382261075
 C         -4.7233599735       -0.1749813883       -0.6507120950
 C         -4.6403594773       -1.2188445173        0.1946162223
 C         -5.7995440269       -2.0740981570        0.6157236224
 C         -6.4595660883       -1.5268772781        1.8890749266
 C         -6.7725325442       -0.0317848022        1.8283285040
 H         -7.2637732063        0.2360565321        2.7662863603
 H         -5.8347633554        0.5271023512        1.7862756831
 C         -7.6624716071        0.3829449854        0.6482764315
 H         -8.4316300812        1.0667998505        1.0132806560
 H         -8.1725362081       -0.4918496655        0.2435310386
 C         -6.9237260460        1.1053673440       -0.4798552960
 H         -6.3343626533        1.9268786871       -0.0647504533
 H         -7.6692238552        1.5431383681       -1.1490155659
 C         -5.9971237912        0.2331043842       -1.3363196359
 H         -6.5418763763       -0.6437236238       -1.6920363341
 H         -5.6927715075        0.8249499935       -2.2045471223
 H         -7.3794087987       -2.0863067192        2.0687291271
 H         -5.7851433084       -1.7013598094        2.7305883372
 H         -6.5260601543       -2.1162688058       -0.1933390687
 H         -5.4289113845       -3.0812629962        0.8131905161
 O         -3.4858761886       -1.5899023019        0.8053615571
 C         -2.3089348070       -0.8846545944        0.6009945052
 O         -1.3302787798       -1.3261114481        1.2323277280
 H          1.5375542384        0.5939764723        0.3906437947
 C          1.2812621605       -0.0019573417       -0.4688838129
 C          0.0182295265        0.0732454584       -1.0323789967
 C         -0.2639483171       -0.7173955123       -2.1443539905
 C          0.6910143825       -1.5655207145       -2.6689067213
 C          1.9532901281       -1.6347692692       -2.1053800609
 C          2.2453869396       -0.8509141232       -0.9962178920
 N          3.5077054085       -0.9207484031       -0.3855297346
 S          4.1607748224        0.4758253468        0.2997225132
 O          3.6175610476        0.6546955231        1.6224730185
 O          4.0114556740        1.5904227254       -0.6089527737
 C          5.8754301289       -0.0017738989        0.4156195531
 C          6.7656906734        0.4143197462       -0.5562146277
 C          8.0892876088        0.0118374734       -0.4693963714
 C          8.4972431895       -0.7977365600        0.5799476861
 C          7.5922100636       -1.2069973038        1.5482654222
 C          6.2678365489       -0.8071499506        1.4682872237
 H          5.5310212212       -1.0924161804        2.2011716415
 H          7.9134262775       -1.8342358491        2.3641198352
 H          9.5276349160       -1.1096445461        0.6454383000
 H          8.7958979533        0.3308549228       -1.2185301792
 H          6.4050472959        1.0497805041       -1.3490005193
 H          4.1887113429       -1.4172471379       -0.9436146311
 H          2.7008912461       -2.2970765580       -2.5147627410
 H          0.4548183778       -2.1740076401       -3.5290675482
 H         -1.2485843333       -0.6582583859       -2.5885833630
 C         -1.0578082575        0.9862435611       -0.4993251104
 H         -1.2993947345        1.7208005463       -1.2827830248
 C         -0.6531857460        1.7321136772        0.7543417538
 C          0.1803389633        2.9734938925        0.6557050518
 C         -1.2645127082        3.0693518970        1.0413369384
 H         -1.5111871626        3.3153030115        2.0632855161
 H         -1.9619642032        3.4612065034        0.3153407675
 H          0.4699308720        3.3031446847       -0.3309537066
 H          0.9338062535        3.1474013033        1.4097790307
 H         -0.4798991342        1.0699445303        1.5962502165
 O         -3.5551511610        1.5793537734       -1.7458178508
