  62
        -98.93876749
 C         -2.0788232997       -0.6197783008       -0.2537550903
 C         -3.1811754495       -0.7973919014        0.6237990498
 C         -4.0108309297        0.3841117984        0.8857069604
 C         -3.6769871299        1.5554790487        0.3150576210
 C         -4.4577752000        2.8299618285        0.4523422017
 C         -5.5021076902        2.9654172190       -0.6647738781
 C         -6.3622638800        1.7170308289       -0.8617469386
 H         -7.0800053001        1.9391247592       -1.6544322885
 H         -5.7292085600        0.9022742892       -1.2207315191
 C         -7.1141821698        1.2583855082        0.3955341912
 H         -8.1425937698        1.0165622082        0.1192262212
 H         -7.1558913498        2.0727770579        1.1195625116
 C         -6.5288546496        0.0141923380        1.0660534406
 H         -6.3967644296       -0.7751337816        0.3218622602
 H         -7.2517285095       -0.3474348325        1.8020706405
 C         -5.1948270695        0.2152238378        1.7960544405
 H         -5.2748199796        1.0594649875        2.4837235209
 H         -4.9957112293       -0.6876695725        2.3804336300
 H         -6.1427783802        3.8190759188       -0.4362682177
 H         -4.9802670503        3.1727597395       -1.6019416181
 H         -4.9462124799        2.8461937180        1.4247914417
 H         -3.7611582801        3.6677660787        0.3907331220
 O         -2.6029016700        1.6970013292       -0.5010575891
 C         -1.7810728099        0.6210996295       -0.8176898297
 O         -0.8572739900        0.9214651000       -1.5991304697
 H          0.8833738203       -0.1324357604       -0.3380701304
 C          0.9529328804       -0.9571225207        0.3558575492
 C         -0.0487938494       -1.9173539309        0.4064183489
 C          0.0575778108       -2.9500324913        1.3314298583
 C          1.1474888109       -3.0285326516        2.1793752582
 C          2.1589224508       -2.0894727914        2.1059156985
 C          2.0565244706       -1.0446145410        1.1925859490
 N          3.0547428004       -0.0630630808        1.1268394994
 S          3.4670138302        0.6070279699       -0.3674196203
 O          2.7385502600        1.8375694199       -0.5446856696
 O          3.3401016802       -0.3882833396       -1.4060787708
 C          5.1928614902        0.9697523600       -0.0872283704
 C          6.1312441202       -0.0068817997       -0.3647953909
 C          7.4688871902        0.2576856003       -0.1171928510
 C          7.8442320201        1.4872581001        0.4033410896
 C          6.8919445001        2.4581764099        0.6751309502
 C          5.5523627201        2.1997856198        0.4296565402
 H          4.7770654300        2.9246850496        0.6166587206
 H          7.1872553300        3.4143601097        1.0760607306
 H          8.8857830101        1.6911418201        0.5951617996
 H          8.2116013503       -0.4938575495       -0.3311331014
 H          5.7935426603       -0.9433211396       -0.7790189114
 H          3.8683651405       -0.2819204910        1.6847896792
 H          3.0174504809       -2.1534869616        2.7571499884
 H          1.2152907011       -3.8337398419        2.8949531678
 H         -0.7317933791       -3.6848949814        1.3902160081
 C         -1.2351312295       -1.8533564906       -0.5265853210
 H         -1.8900980094       -2.7028569408       -0.2861220313
 C         -0.7843554897       -1.9943879798       -1.9663037611
 C         -0.4989349796       -3.3631530595       -2.5049350818
 C         -1.7103398397       -2.6121964095       -2.9685162713
 H         -1.7227318899       -2.2120089390       -3.9711307111
 H         -2.6779855597       -2.9399026297       -2.6167831313
 H         -0.6476098194       -4.2030002599       -1.8430827022
 H          0.3278485204       -3.4808449991       -3.1884432119
 H         -0.1545515998       -1.1815948796       -2.3051867908
 O         -3.4629379693       -1.9040549917        1.1571042793
