  62
        -98.94200886
 C         -1.2287564296       -0.9642004662        0.4369845114
 C         -1.7478731158       -0.6238577878       -0.8362880504
 C         -2.5951383228        0.5788915175       -0.8790963318
 C         -2.8022404250        1.2842512600        0.2477514637
 C         -3.6763062036        2.4998546151        0.3511031489
 C         -5.1154088801        2.1177392078        0.7248294401
 C         -5.6987516273        0.9940081186       -0.1317401680
 H         -5.1474746168        0.0716476341        0.0651656719
 H         -6.7261263964        0.8311623827        0.2010879649
 C         -5.6894739110        1.2758938594       -1.6407062184
 H         -6.6578910983        0.9897736792       -2.0565587612
 H         -5.5652022243        2.3449467398       -1.8177068579
 C         -4.6242746655        0.5056516504       -2.4234716589
 H         -4.6863978536       -0.5576211477       -2.1780873504
 H         -4.8450592769        0.6082228427       -3.4894105796
 C         -3.1764190894        0.9651499034       -2.2101283334
 H         -2.5567348057        0.4687272300       -2.9632863231
 H         -3.1065143151        2.0439590565       -2.3658599082
 H         -5.7425015093        3.0068804912        0.6375597155
 H         -5.1281271107        1.7939756833        1.7680535886
 H         -3.2713445479        3.1507855091        1.1276169514
 H         -3.6657289375        3.0324226393       -0.5979203960
 O         -2.2703558768        0.9374727395        1.4467554567
 C         -1.4908179519       -0.2009360587        1.5757731047
 O         -1.0934709875       -0.4227912306        2.7355963368
 H          0.7283416593       -0.0087632594       -0.6588346428
 C          1.3918116641       -0.8637345076       -0.6688075784
 C          0.9899291191       -2.0523348170       -0.0803769422
 C          1.8761203217       -3.1261999580       -0.1042954067
 C          3.1228422310       -3.0067375635       -0.6910324318
 C          3.5152568982       -1.8169787724       -1.2809456034
 C          2.6332603031       -0.7487380978       -1.2785672585
 N          3.0350261700        0.4817178809       -1.8621352889
 S          3.9629123288        1.4199381489       -0.8281363972
 O          4.1331911333        2.6961734072       -1.4841923127
 O          5.1642958198        0.6913483937       -0.5139322517
 C          2.9495383700        1.6035550743        0.6277524601
 C          2.0371538318        2.6384474394        0.6756002180
 C          1.1723522064        2.7202024449        1.7551498781
 C          1.2262674028        1.7633548491        2.7569367637
 C          2.1449716208        0.7275963414        2.6908074205
 C          3.0140308653        0.6410166220        1.6154140998
 H          3.7395467588       -0.1515548727        1.5262171957
 H          2.1685928940       -0.0200079630        3.4668587031
 H          0.5366188501        1.8091644536        3.5846702935
 H          0.4524679461        3.5216360328        1.8084823956
 H          2.0265425376        3.3626217469       -0.1239690882
 H          2.2494508071        1.0352277012       -2.1767157037
 H          4.4870662830       -1.6965539402       -1.7304913394
 H          3.7980491894       -3.8485522231       -0.6903659323
 H          1.5839373620       -4.0605257905        0.3480024669
 C         -0.3442661684       -2.1788856886        0.6204246971
 H         -0.1426236504       -2.2407284708        1.7003239198
 C         -1.0692772015       -3.4443238837        0.1926540297
 C         -0.9485569877       -4.7053915716        0.9924173898
 C         -2.2280966279       -3.9264089142        1.0114997077
 H         -3.0910641322       -4.3268431482        0.5010737491
 H         -2.4698498487       -3.3657273689        1.9033072933
 H         -0.9302820298       -5.6481092960        0.4667648244
 H         -0.3407440400       -4.6827982017        1.8846672059
 H         -1.1540367013       -3.5307252374       -0.8841386797
 O         -1.5107325963       -1.2744203434       -1.8878701042
