  62
        -98.94438630
 C         -2.1987168545       -1.2687802089        0.2383117293
 C         -2.2582050698       -0.5179641871       -0.9608542213
 C         -3.0515999514        0.7175767985       -0.9040249524
 C         -3.6802714677        1.0670588456        0.2321038028
 C         -4.5252943305        2.2943834567        0.4396731002
 C         -3.7178036308        3.5527127692        0.7877121748
 C         -2.9216889669        4.1562582628       -0.3704059362
 H         -3.5828288906        4.3068435928       -1.2243702699
 H         -2.5803432791        5.1413843007       -0.0463551671
 C         -1.7024487026        3.3283015032       -0.8008896188
 H         -0.8382726490        3.9858898196       -0.9219655725
 H         -1.4578426952        2.6079601832       -0.0166512677
 C         -1.8832458637        2.5722833024       -2.1168772535
 H         -2.0151733736        3.2837398048       -2.9350768666
 H         -0.9714931321        2.0018510099       -2.3142718553
 C         -3.0656134752        1.5943149745       -2.1205677565
 H         -4.0055372135        2.1417422263       -2.1845292961
 H         -2.9759746097        0.9498502784       -2.9984935032
 H         -3.0416289394        3.3154735045        1.6121700191
 H         -4.4248676493        4.3051250812        1.1442010190
 H         -5.1283538475        2.4809460452       -0.4492724270
 H         -5.1946869597        2.0733453040        1.2737301007
 O         -3.6240930010        0.3058860829        1.3557830903
 C         -2.8779466048       -0.8585463005        1.3917920329
 O         -2.9026287858       -1.4425684754        2.4930061135
 H          0.2934200971       -1.4898216023       -1.4336890187
 C          0.7942518760       -1.7290043263       -0.5076664482
 C          0.0659629585       -2.2827630199        0.5353209549
 C          0.7201898393       -2.5548180331        1.7314805978
 C          2.0725450225       -2.2944094732        1.8705697608
 C          2.7979392769       -1.7504786397        0.8254728754
 C          2.1476053647       -1.4568719670       -0.3664824456
 N          2.8593049679       -0.8820588948       -1.4309652415
 S          3.9967851805        0.2933775457       -1.1000333563
 O          4.0539960856        1.1138982563       -2.2893301410
 O          5.2369162499       -0.3326850671       -0.7117819904
 C          3.3583069039        1.2388485721        0.2738646418
 C          2.1014935031        1.8011360867        0.1693957097
 C          1.6106290189        2.5424259942        1.2319352336
 C          2.3784251997        2.7087841322        2.3743391548
 C          3.6391415407        2.1400858300        2.4629459658
 C          4.1352678145        1.3975213837        1.4036650530
 H          5.1090447586        0.9358971966        1.4298673190
 H          4.2345946590        2.2711602198        3.3519775598
 H          1.9889146564        3.2856353374        3.1982545374
 H          0.6299179247        2.9857043774        1.1650420300
 H          1.5218469080        1.6576051085       -0.7291853597
 H          2.2824528913       -0.6374763032       -2.2222053374
 H          3.8544760510       -1.5553023443        0.9134039706
 H          2.5686509907       -2.5175925963        2.8026616783
 H          0.1575385173       -2.9644509698        2.5577583869
 C         -1.4100425382       -2.5630184638        0.3783617256
 H         -1.7633820697       -3.0226707022        1.3106281787
 C         -1.6651609556       -3.5345093175       -0.7582378513
 C         -1.3698055597       -4.9878693615       -0.5487180881
 C         -2.7896182250       -4.5168775974       -0.6425369749
 H         -3.3575992385       -4.7566605839       -1.5289597613
 H         -3.3813103611       -4.4954581981        0.2613439543
 H         -0.9598261154       -5.5540016042       -1.3709972098
 H         -0.9987542659       -5.2881097063        0.4196023752
 H         -1.4717249744       -3.1171246884       -1.7373356876
 O         -1.6879876053       -0.8344490681       -2.0400180304
