  62
        -98.94287465
 C          1.3928535703        0.6952102692        0.3968687327
 C          2.0769119408        0.4524341418       -0.8184856375
 C          3.0290983107       -0.6686855783       -0.8013007095
 C          3.1654688600       -1.4030598009        0.3179944689
 C          4.1317604997       -2.5388263714        0.4872267368
 C          5.4742789895       -2.0472045129        1.0461008286
 C          6.0481334601       -0.8414166213        0.3021287416
 H          5.3942764201        0.0193238485        0.4597359232
 H          7.0096241999       -0.6030751024        0.7619237326
 C          6.2422985708       -1.0593351679       -1.2049767188
 H          7.2231682210       -0.6740171574       -1.4912287674
 H          6.2365139308       -2.1266724474       -1.4293510012
 C          5.2112762314       -0.3510926258       -2.0859000077
 H          5.5639923119       -0.3891267935       -3.1200438676
 H          5.1475919614        0.7020855436       -1.8009865754
 C          3.7960805313       -0.9423314656       -2.0642281198
 H          3.2251135317       -0.4685539237       -2.8685332590
 H          3.8427900112       -2.0151527752       -2.2636680322
 H          5.3324901390       -1.7680796452        2.0927103291
 H          6.1867174794       -2.8733075829        1.0085522871
 H          3.6993711993       -3.2577523329        1.1853925750
 H          4.2833334602       -3.0271617993       -0.4735439442
 O          2.4581461795       -1.1650450333        1.4521088291
 C          1.5611441696       -0.1096976934        1.5234514010
 O          0.9773833990       -0.0018811658        2.6194683409
 H         -0.7295046796       -0.4709334490       -0.2579425910
 C         -1.2065565692        0.3733583021       -0.7416497693
 C         -0.7315936392        1.6540377915       -0.4919082562
 C         -1.3687840587        2.7220385130       -1.1122368341
 C         -2.4432622883        2.5088985351       -1.9592471351
 C         -2.9101307684        1.2300993057       -2.2055573082
 C         -2.2777066388        0.1577484042       -1.5940273003
 N         -2.7819814989       -1.1522831852       -1.8019273335
 S         -4.1467855794       -1.4693487871       -0.8765305049
 O         -4.3628442296       -2.8960876169       -0.9554874883
 O         -5.2195813391       -0.6303431159       -1.3436125836
 C         -3.6632314502       -0.9972872209        0.7736144964
 C         -3.0160151107       -1.9249969228        1.5652911446
 C         -2.5198803713       -1.5272791856        2.7959638857
 C         -2.6645447413       -0.2105700965        3.2044050386
 C         -3.3173169307        0.7086457054        2.3979865404
 C         -3.8206614802        0.3160401882        1.1682144092
 H         -4.3289086198        1.0021868398        0.5104051505
 H         -3.4256250608        1.7324238647        2.7182074326
 H         -2.2549609217        0.0994772113        4.1525516995
 H         -2.0064341917       -2.2361563271        3.4255804444
 H         -2.9182900207       -2.9382476620        1.2077233824
 H         -2.0943228391       -1.8674046758       -1.6069516948
 H         -3.7576975381        1.0452222773       -2.8449157091
 H         -2.9253883479        3.3507810862       -2.4321225435
 H         -1.0239914686        3.7266656325       -0.9292895917
 C          0.3991226704        1.8362127691        0.4920400748
 H         -0.0318289901        1.7775235969        1.5031378344
 C          1.1104497806        3.1662026894        0.3408351482
 C          0.6364696404        4.3726559577        1.0926208606
 C          1.9088628201        3.6915511166        1.4948706697
 H          2.8479619803        4.1841338570        1.2917929613
 H          1.9117291096        3.1046342946        2.4021291284
 H          0.7043874108        5.3381023088        0.6140298029
 H         -0.2216870099        4.2570986164        1.7370832399
 H          1.5166270412        3.3078136015       -0.6540759613
 O          1.8993279415        1.1296303342       -1.8643081060
