  62
        -98.94334065
 C         -1.1983644601       -0.7035080699        0.6365200841
 C         -1.9046481092       -0.5441625108       -0.5813756760
 C         -2.8566238867        0.5748276267       -0.6227237095
 C         -2.9386134982        1.4288478581        0.4122186422
 C         -3.8383997073        2.6313305482        0.5031190334
 C         -5.2648963589        2.3106799686        0.9704325982
 C         -6.1402103385        1.5922982387       -0.0573653657
 H         -7.1654143772        1.6259079962        0.3165011269
 H         -6.1182729856        2.1430041710       -0.9982629706
 C         -5.7532237390        0.1278277904       -0.3064453957
 H         -6.6520794173       -0.4925924788       -0.3003034461
 H         -5.1161928758       -0.2235632169        0.5085069019
 C         -5.0392494590       -0.1220928070       -1.6349477299
 H         -5.7148536228        0.1050059597       -2.4624660434
 H         -4.7821455652       -1.1828534828       -1.6915338998
 C         -3.7498899195        0.6889995521       -1.8208561410
 H         -3.2064801344        0.2838512430       -2.6782602764
 H         -3.9865917808        1.7340075828       -2.0211862837
 H         -5.7439894004        3.2588152157        1.2253072193
 H         -5.2069363540        1.7121180920        1.8825592852
 H         -3.8733050464        3.1356163185       -0.4632563361
 H         -3.3798358711        3.3072106841        1.2285420203
 O         -2.1647479295        1.3035380503        1.5232584209
 C         -1.2860504017        0.2413374176        1.6614560056
 O         -0.6347108538        0.2551452779        2.7264430162
 O         -1.7586734777       -1.2853955839       -1.5869869308
 C         -0.1896725746       -1.8213127202        0.8344225324
 C          0.7785150990       -1.8511593465       -0.3240983437
 C          1.1863959445       -3.0067960151       -0.9765420889
 C          2.1125550481       -2.9364076831       -2.0036800740
 C          2.6651237293       -1.7279883107       -2.3866461395
 C          2.2588829052       -0.5646706229       -1.7417624551
 C          1.3236992212       -0.6383445654       -0.7244464811
 H          0.9884737504        0.2725862733       -0.2529893010
 N          2.7825557708        0.6867962690       -2.0963182264
 S          2.9447661923        1.8857120145       -0.9467092434
 O          1.6616279274        2.4620133495       -0.6272918173
 O          3.9159851272        2.7935654035       -1.5199566139
 C          3.6519632818        1.0723109345        0.4756193596
 C          2.9211376675        0.9085452362        1.6341883299
 C          3.4943567534        0.2285443599        2.6976910293
 C          4.7823310473       -0.2706856847        2.5870777736
 C          5.5092125113       -0.0881024666        1.4200053285
 C          4.9399056125        0.5863278757        0.3530446025
 H          5.4765003243        0.7572073036       -0.5659411325
 H          6.5133400289       -0.4717321815        1.3387811247
 H          5.2211753371       -0.8019571865        3.4167715096
 H          2.9197603931        0.0904003228        3.6000033120
 H          1.9179992179        1.3017827355        1.6983582977
 H          3.5503945342        0.6682621421       -2.7502873420
 H          3.3901060924       -1.6790647813       -3.1843269285
 H          2.4143641051       -3.8403516922       -2.5105668193
 H          0.7674265127       -3.9594439717       -0.6975550659
 H          0.3882489551       -1.5167996616        1.7237965021
 C         -0.7976676813       -3.1778128488        1.1619171777
 C         -2.2045536467       -3.3002203547        1.6652360743
 C         -1.8482954298       -3.8159101853        0.3051391588
 H         -1.8094346157       -4.8856493077        0.1587919913
 H         -2.1843413140       -3.2653682601       -0.5586323177
 H         -2.4079218603       -4.0103853482        2.4529707319
 H         -2.7935823239       -2.3962947507        1.7295004642
 H         -0.0728421995       -3.8462366728        1.6162295549
