  62
        -98.94407412
 C          1.8086918324        1.3534291985        0.1284622916
 C          1.9768719665        0.3510461686       -0.8575733335
 C          3.3228683214       -0.2345268952       -0.9587444166
 C          4.2979606795        0.1872225558       -0.1344868126
 C          5.6907938867       -0.3692315723       -0.0918533460
 C          5.7985377825       -1.5232084493        0.9148311041
 C          4.7044669714       -2.5802536174        0.7636925114
 H          4.9005481061       -3.3591801579        1.5038072367
 H          3.7396502978       -2.1342193072        1.0169563743
 C          4.6201508665       -3.2120104381       -0.6329104212
 H          5.5480831820       -3.0331317973       -1.1773155302
 H          4.5129641886       -4.2932139524       -0.5221363278
 C          3.4374861048       -2.7314181168       -1.4758027994
 H          3.3474553003       -3.3923734649       -2.3421085622
 H          2.5151363118       -2.8250935863       -0.8965152669
 C          3.5346286273       -1.2943910723       -2.0035946613
 H          2.7362049006       -1.1564091071       -2.7384046191
 H          4.4927352329       -1.1523624014       -2.5072924570
 H          6.7775557344       -1.9917705956        0.7992433562
 H          5.7368623200       -1.1096548568        1.9241518681
 H          6.3704221716        0.4290682562        0.2110352646
 H          5.9704847717       -0.7131327862       -1.0857901039
 O          4.1038311400        1.1520506626        0.7989744571
 C          2.8676297473        1.7531735222        0.9520968936
 O          2.8342545833        2.6269599790        1.8414344023
 O          1.0653119051       -0.0597519822       -1.6260114706
 C          0.4997220989        2.0917224988        0.3643982375
 C         -0.4797244850        1.2848602615        1.1818509125
 C         -1.0560437140        1.8085261793        2.3330204952
 C         -1.9911585290        1.0813636072        3.0498448528
 C         -2.3678740239       -0.1844709307        2.6366143662
 C         -1.7893132436       -0.7182548875        1.4936175416
 C         -0.8613278624        0.0157721625        0.7710879925
 H         -0.4306717754       -0.4015935629       -0.1270663982
 N         -2.1824095093       -2.0042373809        1.0491168031
 S         -3.7343059094       -2.0462988870        0.4121827739
 O         -4.6785955979       -1.8434542979        1.4811748607
 O         -3.8372591931       -3.2969972281       -0.3046780459
 C         -3.7777362670       -0.6682509362       -0.7183229076
 C         -3.2668312508       -0.8426814435       -1.9886842393
 C         -3.2138759893        0.2450050942       -2.8445843777
 C         -3.6607572617        1.4838003280       -2.4118805745
 C         -4.1648427440        1.6440422726       -1.1304907430
 C         -4.2223547602        0.5592843649       -0.2709083798
 H         -4.6062953994        0.6405864580        0.7327218478
 H         -4.5068656196        2.6099082877       -0.7953286925
 H         -3.6151744794        2.3289379841       -3.0810657853
 H         -2.8159962640        0.1249519121       -3.8395722334
 H         -2.9295473213       -1.8223401720       -2.2881643887
 H         -1.5462161708       -2.3773485251        0.3570465552
 H         -3.1062684007       -0.7602796565        3.1707080283
 H         -2.4308899906        1.5039202429        3.9403823397
 H         -0.7613048328        2.7915007781        2.6700377932
 H          0.7690495033        2.9826688832        0.9468708529
 C         -0.1649541940        2.5456285268       -0.9229193130
 C         -1.0404955265        3.7600733350       -0.8985004534
 C          0.2960245449        3.8127706709       -1.5745614953
 H          0.3320060726        3.8530862049       -2.6526749919
 H          1.0928889095        4.3604270497       -1.0919246071
 H         -1.9265964613        3.7658520911       -1.5127243507
 H         -1.1512514926        4.2787021976        0.0415347896
 H         -0.4527077294        1.7268355770       -1.5692352503
