  62
        -98.94312614
 C         -1.3728703600       -1.0654477009       -0.7735838499
 C         -2.7144870600       -1.3792590310       -0.4347724700
 C         -3.6661674702       -0.2614000212       -0.4369886805
 C         -3.2294302005        0.9702840587       -0.7568997409
 C         -4.0732227707        2.2112469686       -0.7391089915
 C         -4.0129383310        2.9051744491        0.6287833783
 C         -4.2553628909        1.9654865795        1.8099357286
 H         -3.4338623508        1.2477842697        1.8699945690
 H         -4.2211729711        2.5698133599        2.7190075584
 C         -5.5875928608        1.2048932792        1.7532979188
 H         -6.0557789709        1.2438167495        2.7391932587
 H         -6.2656929408        1.6953180688        1.0538788085
 C         -5.4583767004       -0.2733051009        1.3809167693
 H         -6.4171761003       -0.7594009210        1.5807180894
 H         -4.7112643304       -0.7487358605        2.0215599796
 C         -5.0944694002       -0.5640916214       -0.0805431605
 H         -5.2239110700       -1.6375201015       -0.2472607601
 H         -5.7782811503       -0.0294937818       -0.7431827208
 H         -4.7538211912        3.7066630690        0.6418535279
 H         -3.0238645711        3.3530193294        0.7460484782
 H         -5.1015195106        1.9480218283       -0.9794987315
 H         -3.6950972308        2.8949180184       -1.5007522817
 O         -1.9428213205        1.2315969589       -1.0941015109
 C         -0.9793512103        0.2307739891       -1.1096282204
 O          0.1492712197        0.6340308392       -1.4439954404
 O         -3.0997167698       -2.5449089510       -0.1478984596
 C         -0.3659185998       -2.2040415407       -0.7452098694
 C          0.4832932701       -2.0999505000        0.4990607606
 C          0.1774738701       -2.8747521396        1.6135022009
 C          0.9335768500       -2.7780749890        2.7674244309
 C          2.0090246598       -1.9109767088        2.8303908607
 C          2.3141415497       -1.1203226392        1.7267210704
 C          1.5525080499       -1.2176712398        0.5710618904
 H          1.7891822098       -0.5908271900       -0.2719436298
 N          3.3643294695       -0.2009580689        1.7899253602
 S          4.1232211895        0.4349542707        0.4511084700
 O          4.3527722098       -0.5633769196       -0.5674249996
 O          5.3175501093        1.0491812412        0.9972980699
 C          3.0466729193        1.7196569603       -0.1433746806
 C          2.3269421691        2.4669304705        0.7658865691
 C          1.5302821789        3.4990647901        0.2994173386
 C          1.4726147590        3.7696605096       -1.0583569215
 C          2.2058650892        3.0130776894       -1.9570843511
 C          3.0013692294        1.9771717498       -1.4973522107
 H          3.5723171796        1.3517953996       -2.1656521204
 H          2.1509090593        3.2169965590       -3.0145840812
 H          0.8440152188        4.5686324193       -1.4197445119
 H          0.9510062287        4.0850977003        0.9955491083
 H          2.3867500490        2.2260248609        1.8147892892
 H          3.9570942295       -0.2473980185        2.6039337303
 H          2.6050410097       -1.8379452583        3.7271864107
 H          0.6879833900       -3.3877700988        3.6238129211
 H         -0.6671421498       -3.5474277698        1.5687874311
 H         -0.9713524996       -3.1170473707       -0.6613346891
 C          0.4701305403       -2.3000552310       -2.0046196893
 C          1.1773428206       -3.5860021309       -2.3064496387
 C          0.0011525906       -3.1647095815       -3.1343357890
 H          0.1740119407       -2.8290397918       -4.1458614191
 H         -0.9298886693       -3.6971138416       -3.0040953589
 H          2.1632189907       -3.5392590609       -2.7433297287
 H          1.0427380407       -4.4038389407       -1.6144457584
 H          0.9744793002       -1.3788618909       -2.2658825996
