  62
        -98.94776691
 C          0.7802411780        1.2708828613        0.0230163934
 C          1.4876126153        0.6104408951        1.0547583032
 C          2.4062635649       -0.4478388769        0.6203863137
 C          2.4775249332       -0.7758977862       -0.6824508013
 C          3.3800302582       -1.8179238463       -1.2849320299
 C          4.8002200918       -1.3110295237       -1.5746259565
 C          5.6827900648       -1.1047928301       -0.3427041801
 H          5.6726960866       -2.0087740617        0.2669608306
 H          6.7048008542       -0.9658169422       -0.7008717534
 C          5.2963501355        0.1046392228        0.5203426522
 H          4.6553818943        0.7752731635       -0.0566567187
 H          6.1951141607        0.6681961858        0.7810512379
 C          4.5894785643       -0.2486899333        1.8292091552
 H          5.2706019986       -0.8071796034        2.4752895532
 H          4.3292889811        0.6819523114        2.3401183091
 C          3.3036690241       -1.0667341907        1.6494073077
 H          3.5512245486       -2.0921518972        1.3762434729
 H          2.7657179433       -1.0740796532        2.6008359095
 H          4.7307213796       -0.3749073628       -2.1332350977
 H          5.2838263706       -2.0476879126       -2.2201678231
 H          3.4330362043       -2.6869815046       -0.6297782726
 H          2.9226105292       -2.1142376935       -2.2306314328
 O          1.7081853461       -0.1799128685       -1.6311110724
 C          0.8734619948        0.8809802317       -1.3130201298
 O          0.2777250225        1.3760235205       -2.2881120511
 H         -1.5284128577        0.2093043261        0.4745864801
 C         -2.0952603020        1.0039896585        0.0119838062
 C         -1.5099024369        2.2549541454       -0.1361576872
 C         -2.2548072630        3.2721283796       -0.7192522529
 C         -3.5471295178        3.0321914767       -1.1524700462
 C         -4.1242917014        1.7851097285       -1.0059654837
 C         -3.3889762229        0.7607375725       -0.4183299663
 N         -3.9338206603       -0.5214669187       -0.2893359456
 S         -3.3957264593       -1.6108398481        0.8469857951
 O         -4.4181157156       -2.6361927425        0.8606585112
 O         -3.1239129918       -0.9809630747        2.1181390929
 C         -1.9111717275       -2.3021819783        0.1520573614
 C         -0.8017926589       -2.4797605754        0.9534538253
 C          0.3197009618       -3.0936498218        0.4197872184
 C          0.3132328925       -3.5132601526       -0.9009098352
 C         -0.8039965512       -3.3150352324       -1.6971103413
 C         -1.9309070789       -2.7088070915       -1.1670526061
 H         -2.8201693688       -2.5468621457       -1.7532390750
 H         -0.8007796945       -3.6340329228       -2.7269904803
 H          1.1839267141       -3.9986857167       -1.3118586896
 H          1.1890009729       -3.2401429690        1.0400927646
 H         -0.8311164173       -2.1279235905        1.9733384397
 H         -4.9127699776       -0.6160216212       -0.5116699819
 H         -5.1312313284        1.5986210605       -1.3463829541
 H         -4.1138950188        3.8293768396       -1.6090746056
 H         -1.8233537352        4.2522201884       -0.8393034117
 C         -0.1042097079        2.4519226186        0.3731416694
 H         -0.1430728486        2.4751457257        1.4734061386
 C          0.5389281131        3.7342416769       -0.1174501712
 C          0.3501114260        5.0178570828        0.6328510150
 C          1.6745048214        4.3180495265        0.6666122860
 H          2.5043189580        4.7526562676        0.1296157031
 H          1.9615928584        3.8072442738        1.5742943052
 H         -0.2583819119        4.9911691325        1.5242668489
 H          0.2728214945        5.9372126436        0.0720758673
 H          0.6043524204        3.7759390255       -1.1993296351
 O          1.3673490600        0.8991384279        2.2766794114
