  62
        -98.93613424
 C         -1.6675254187        0.3469020946        0.3771098476
 C         -2.8849063975        0.7284426864        0.9875241271
 C         -4.0990912292        0.5205577213        0.1871813757
 C         -3.9966664797        0.0201363018       -1.0574203615
 C         -5.1226995833       -0.2017079978       -2.0326285975
 C         -6.1675129881       -1.2632297684       -1.6376657045
 C         -7.3995628359       -0.7005851390       -0.9181893223
 H         -7.5169269448        0.3489066387       -1.1911008976
 H         -8.2874590887       -1.2202439667       -1.2841416918
 C         -7.4011512662       -0.8351248565        0.6076176865
 H         -7.6594156265       -1.8623963301        0.8748520034
 H         -8.1877930023       -0.1866373114        0.9995006857
 C         -6.0856019266       -0.4972826815        1.3094680785
 H         -5.3728750682       -1.3129660504        1.1665699102
 H         -6.2770496155       -0.4401758621        2.3829057595
 C         -5.4207657355        0.8103704528        0.8371075331
 H         -6.0752711598        1.3503977451        0.1544834353
 H         -5.2122551441        1.4530165261        1.6949505268
 H         -5.6916538501       -2.0345998904       -1.0328566000
 H         -6.5010360608       -1.7372722301       -2.5621410639
 H         -4.6425141853       -0.5042920944       -2.9653589163
 H         -5.6251513130        0.7518539655       -2.2103636666
 O         -2.8013537562       -0.3175939942       -1.6141133741
 C         -1.6121623102       -0.1770378031       -0.9145087691
 O         -0.6009487866       -0.5425436851       -1.5415718670
 O         -2.9534348801        1.2310768676        2.1418548005
 C         -0.3703709538        0.5221627060        1.1454640499
 C          0.5622541881        1.4258615741        0.3785221206
 C          0.0895215661        2.6584478846       -0.0664651195
 C          0.9037635758        3.5065938498       -0.7902782375
 C          2.2087115040        3.1480177741       -1.0813322727
 C          2.6929465927        1.9243198403       -0.6365672334
 C          1.8717212205        1.0754700882        0.0941443747
 H          2.2668623978        0.1352072827        0.4374436839
 N          3.9957216283        1.5193405459       -0.9485348008
 S          4.8782636024        0.5280343911        0.0596265871
 O          4.6814795545        0.8650119971        1.4504799586
 O          6.2366030904        0.6417993425       -0.4281330922
 C          4.2786959207       -1.1169739406       -0.2635733262
 C          4.2021216258       -2.0132359461        0.7842368371
 C          3.7584082167       -3.3020447753        0.5347176327
 C          3.4032871753       -3.6709841315       -0.7534786603
 C          3.4918601923       -2.7609775114       -1.7956584947
 C          3.9363028992       -1.4712371258       -1.5529852127
 H          4.0066920078       -0.7389617112       -2.3398344784
 H          3.2095438409       -3.0498573591       -2.7952453678
 H          3.0527461155       -4.6728229609       -0.9459004328
 H          3.6881852618       -4.0116678774        1.3439046111
 H          4.4794555450       -1.6791498997        1.7717056273
 H          4.5654557621        2.1988035522       -1.4291287696
 H          2.8445129074        3.8070877848       -1.6526471937
 H          0.5220457029        4.4572596613       -1.1315040017
 H         -0.9307829093        2.9382528928        0.1586714321
 H         -0.6490525086        1.0310315192        2.0803684712
 C          0.2276651687       -0.8270294834        1.4841386947
 C          1.1135185797       -0.9804653328        2.6829522194
 C         -0.2692919751       -1.5573302019        2.6942469848
 H         -0.3812663854       -2.6295954528        2.6394155965
 H         -1.0244447404       -1.0689956263        3.2928205103
 H          1.9516369206       -1.6573944008        2.6184383406
 H          1.3069988961       -0.1007442973        3.2781616129
 H          0.4544331984       -1.4158939781        0.6019320723
