  62
        -98.94790907
 C         -0.9793416565       -0.9982175375        0.7133187266
 C         -1.5913912553       -0.8846222900       -0.5580319996
 C         -2.2846010019        0.3826800961       -0.8186457524
 C         -2.2507300848        1.3655451603        0.0984043764
 C         -2.8705569462        2.7300170838       -0.0416290596
 C         -4.3632287657        2.7798987861        0.3127120004
 C         -5.2978219889        2.1293645639       -0.7077350203
 H         -6.3149635271        2.4278031233       -0.4461991482
 H         -5.0856493631        2.5299055986       -1.6995785087
 C         -5.2272002837        0.5964123433       -0.7441420618
 H         -4.7451018882        0.2319238919        0.1656916343
 H         -6.2390558420        0.1854180479       -0.7584178260
 C         -4.4895470387        0.0248908744       -1.9551474163
 H         -5.0355825808        0.2719478514       -2.8683448495
 H         -4.4656939021       -1.0637143054       -1.8609644120
 C         -3.0439501030        0.5178275123       -2.1029861169
 H         -2.5389443437       -0.1007598329       -2.8494671404
 H         -3.0292870842        1.5522865432       -2.4472222891
 H         -4.5054619715        2.3095000806        1.2882099117
 H         -4.6398412141        3.8325538048        0.4064955937
 H         -2.3330345815        3.3892210124        0.6438740639
 H         -2.7212266310        3.0945814173       -1.0589007809
 O         -1.6060903149        1.2359830560        1.2890528926
 C         -0.9613399212        0.0553815617        1.6255698660
 O         -0.4120915441        0.0717799835        2.7458325841
 H          1.4512972532       -0.3617700000        0.2855249220
 C          1.6908064723       -1.2991516504       -0.1952458528
 C          0.9322939775       -2.4244930189        0.1014265800
 C          1.2623015401       -3.6266747361       -0.5094168344
 C          2.3056615125       -3.6829455027       -1.4181240758
 C          3.0266362435       -2.5493361248       -1.7456485264
 C          2.7122623724       -1.3438207724       -1.1278472983
 N          3.4228072373       -0.1679610069       -1.4126912138
 S          2.6184650875        1.2998766927       -1.4186791434
 O          1.2651550965        1.1793199162       -1.9095147158
 O          3.4885069260        2.1757828948       -2.1776398938
 C          2.6220327373        1.8245604935        0.2815157775
 C          3.7645929449        1.6509123189        1.0368539145
 C          3.7642177839        2.0804978674        2.3540691220
 C          2.6314057382        2.6750521702        2.8889309970
 C          1.4951264223        2.8492591744        2.1149134787
 C          1.4901533686        2.4231140604        0.7969127290
 H          0.6213164912        2.5223048526        0.1639019309
 H          0.6083626044        3.2976993757        2.5332760506
 H          2.6291310900        3.0008221201        3.9170983029
 H          4.6445436935        1.9461569504        2.9618558829
 H          4.6234830715        1.1795184316        0.5890841641
 H          4.0905587572       -0.2392268456       -2.1666801659
 H          3.8218303523       -2.5916321880       -2.4742220089
 H          2.5492909580       -4.6214808296       -1.8926292436
 H          0.6962244322       -4.5159064049       -0.2854859848
 C         -0.2100219383       -2.2566724814        1.0748185196
 H          0.2153312441       -2.0775992445        2.0734089762
 C         -1.1338655621       -3.4539602269        1.1419670295
 C         -0.8159577719       -4.6022133674        2.0507723979
 C         -1.9436071055       -3.6733291985        2.3833761846
 H         -2.9570548714       -4.0313252454        2.2814203424
 H         -1.8081485460       -2.9710302528        3.1931953381
 H          0.0840029701       -4.5366363494        2.6431699647
 H         -1.0580645560       -5.6019017561        1.7229084155
 H         -1.6080818931       -3.6666176603        0.1908500136
 O         -1.5656766263       -1.7929471235       -1.4293206909
