  62
        -98.93929388
 C         -1.5807896904       -0.2346967295       -0.6722730800
 C         -2.8439750505       -0.7706433192       -1.0188077603
 C         -3.9252790503       -0.6089998800       -0.0322088000
 C         -3.6533053002       -0.0051407910        1.1376054205
 C         -4.6095827700        0.2946585981        2.2589423609
 C         -5.1925838600        1.7108658482        2.1153002122
 C         -6.4467446901        1.8068111791        1.2473503924
 H         -7.2851031500        1.3496556186        1.7771528421
 H         -6.6763370500        2.8677660992        1.1247764233
 C         -6.3342689303        1.1645664402       -0.1376637082
 H         -7.1047369403        1.6040330008       -0.7740670077
 H         -5.3682321603        1.4129876506       -0.5806746881
 C         -6.5204962503       -0.3597748598       -0.1127309695
 H         -6.9145840802       -0.6553170906        0.8594062903
 H         -7.2731713904       -0.6444432091       -0.8509018996
 C         -5.2603931204       -1.1778473996       -0.4294240403
 H         -5.1860617406       -1.3272574586       -1.5112261405
 H         -5.3605625704       -2.1739323399        0.0149493388
 H         -5.4393921398        2.0899141974        3.1091417625
 H         -4.4099549700        2.3544786286        1.7055615026
 H         -5.3964800301       -0.4523477219        2.3053993503
 H         -4.0276985999        0.2498316873        3.1821100108
 O         -2.4180990801        0.4796794587        1.4410443608
 C         -1.3547213002        0.3829623094        0.5580149806
 O         -0.2972559501        0.8864116290        0.9804753809
 O         -3.0630135306       -1.3572307582       -2.1133521007
 C         -0.4356478405       -0.4016273387       -1.6582368402
 C          0.5122290995       -1.4390420393       -1.1071388312
 C          0.1000106394       -2.7691508093       -1.0600207823
 C          0.9276917794       -3.7445080598       -0.5397393233
 C          2.1765260595       -3.4124058303       -0.0413351031
 C          2.5947620496       -2.0889031202       -0.0774089020
 C          1.7682660296       -1.1148210997       -0.6219573411
 H          2.1092941596       -0.0960018497       -0.6523234303
 N          3.8626307797       -1.7120340607        0.4008057181
 S          3.9508923798       -0.4547399117        1.5168124292
 O          5.2534039399       -0.6228081423        2.1300566789
 O          2.8243270700       -0.4748528024        2.4196604293
 C          3.9754118698        1.0261006092        0.5307276005
 C          2.9297520099        1.9254671892        0.6012141414
 C          2.9815896598        3.0660461598       -0.1860309777
 C          4.0666140197        3.2849857805       -1.0209871476
 C          5.1092761397        2.3718989205       -1.0753286485
 C          5.0668309597        1.2308809898       -0.2908525395
 H          5.8570694297        0.4988692098       -0.2956594702
 H          5.9506710796        2.5457057910       -1.7265501085
 H          4.0969619397        4.1726090310       -1.6334228768
 H          2.1670094199        3.7721713898       -0.1461330270
 H          2.0849566599        1.7062137486        1.2367914713
 H          4.4305894297       -2.4879455510        0.7124315574
 H          2.8207992995       -4.1726405406        0.3745563761
 H          0.5978563294       -4.7723703398       -0.5137265041
 H         -0.8811507306       -3.0243020089       -1.4360698924
 H         -0.8957105307       -0.8162870279       -2.5663882505
 C          0.2272160395        0.9154573915       -1.9984881492
 C          1.1349294394        1.0004966525       -3.1880825292
 C         -0.2064857206        1.6674797026       -3.2192495085
 H         -0.2496923006        2.7450147626       -3.1706845975
 H         -0.9822422607        1.2272582132       -3.8286625688
 H          2.0173576694        1.6181001524       -3.1166407988
 H          1.2689763092        0.1051210830       -3.7758121300
 H          0.4861185696        1.4993996208       -1.1241250787
