  62
        -98.93938551
 C         -2.6552170982       -1.2746558395       -0.1604617239
 C         -2.6408513697       -0.1281881743       -0.9910144680
 C         -3.9158776344        0.5953980168       -1.1026916036
 C         -4.9947251446        0.1400329621       -0.4403507952
 C         -6.3342240323        0.8162206212       -0.4148939934
 C         -6.4374770275        1.7957870530        0.7627909155
 C         -5.2475849558        2.7484421807        0.8815400917
 H         -5.4446263258        3.4105392469        1.7276055079
 H         -4.3517083510        2.1731674110        1.1274034707
 C         -4.9793618498        3.5896741650       -0.3742230159
 H         -5.8639533298        3.5952300540       -1.0121568183
 H         -4.7919637533        4.6216866169       -0.0703402413
 C         -3.7675684262        3.1394794547       -1.1922423408
 H         -2.8977276451        3.0421340012       -0.5371824201
 H         -3.5411262306        3.9211073604       -1.9223406867
 C         -3.9370073432        1.8256454190       -1.9653895328
 H         -4.8508822944        1.8638963492       -2.5615406078
 H         -3.0851870586        1.7289038977       -2.6447817251
 H         -7.3576113678        2.3725323553        0.6525320949
 H         -6.5067993128        1.2188746018        1.6879734204
 H         -6.4876025339        1.3434714766       -1.3543571993
 H         -7.1044762826        0.0506841068       -0.3075489563
 O         -4.9730571458       -0.9755497705        0.3335520272
 C         -3.8045546580       -1.6979103790        0.5073633830
 O         -3.9154780945       -2.6819476723        1.2668952073
 H          1.0988681252       -1.2107765406       -0.8179911071
 C          0.8417008747       -0.8316222913        0.1586005661
 C         -0.3670819793       -1.1797989076        0.7372427952
 C         -0.6723779965       -0.6730355317        1.9982855499
 C          0.2060974049        0.1670092641        2.6540757025
 C          1.4053371037        0.5285551259        2.0643754022
 C          1.7203980440        0.0284219261        0.8089565276
 N          2.9223043286        0.4122032230        0.1847508141
 S          4.3375114412        0.3741947485        1.1047044811
 O          4.4782064648       -0.9140138415        1.7480546148
 O          4.3508972058        1.5181763161        1.9809296690
 C          5.5658642492        0.5738324814       -0.1701982873
 C          6.1995791808       -0.5411629888       -0.6847245324
 C          7.1323040770       -0.3743694000       -1.6963829453
 C          7.4111094308        0.8968121833       -2.1754546724
 C          6.7671250873        2.0063871582       -1.6481381316
 C          5.8345136930        1.8468957370       -0.6357690624
 H          5.3158904450        2.6798048137       -0.1906869600
 H          6.9886233539        2.9931310054       -2.0216532655
 H          8.1371596233        1.0236852331       -2.9629364617
 H          7.6372393042       -1.2343530323       -2.1061039026
 H          5.9581608171       -1.5093346092       -0.2759992291
 H          3.0583162024       -0.0700678019       -0.6936842673
 H          2.0989323408        1.1850019356        2.5641058355
 H         -0.0438838288        0.5495443560        3.6326877518
 H         -1.6137278420       -0.9487861672        2.4554358747
 C         -1.3809493182       -2.0719959943        0.0619422518
 H         -1.6446153070       -2.8751224455        0.7646497095
 C         -0.9005863005       -2.6944552902       -1.2313040193
 C          0.0192399800       -3.8768677235       -1.1924690308
 C         -1.4079408384       -4.0504461422       -1.6153891766
 H         -1.6181095594       -4.2462317677       -2.6561302218
 H         -2.0902307209       -4.5374441341       -0.9338355760
 H          0.7886487342       -3.9587561028       -1.9453156134
 H          0.3107900798       -4.2504137591       -0.2222778547
 H         -0.7705992658       -1.9686840137       -2.0252850328
 O         -1.6217940397        0.2729999564       -1.6109284763
