  62
        -98.94456712
 C          2.1498868971        0.9941262966       -0.4455981268
 C          3.1975164235        1.2283261630        0.4790025141
 C          4.4548715064        0.5146553985        0.2236989617
 C          4.5433616228       -0.2993482651       -0.8441037618
 C          5.7409559464       -1.1366622013       -1.1858228667
 C          5.6424584671       -2.5305052442       -0.5498998892
 C          5.2936202819       -2.5082778862        0.9384122141
 H          4.2805129262       -2.1180199338        1.0611876124
 H          5.2814326453       -3.5442025153        1.2843047113
 C          6.2612709411       -1.6909190197        1.8057781461
 H          7.1971918942       -1.5333260878        1.2685212831
 H          6.4962159432       -2.2657013908        2.7041242669
 C          5.7109185344       -0.3417168775        2.2715732886
 H          4.7284442217       -0.4854289870        2.7282201092
 H          6.3774633278        0.0484524878        3.0453078300
 C          5.5855793701        0.7370527374        1.1883451242
 H          5.3711317615        1.6860935078        1.6882636663
 H          6.5334315864        0.8358508094        0.6556427115
 H          6.5947590563       -3.0439547504       -0.6947015871
 H          4.8681968732       -3.0960909625       -1.0737012294
 H          5.7872688467       -1.2449197899       -2.2707657907
 H          6.6416388310       -0.6317715663       -0.8420693199
 O          3.5215433564       -0.4902926156       -1.7161925632
 C          2.2964800698        0.1369805472       -1.5362509403
 O          1.4497305961       -0.1426910638       -2.4059966720
 H         -1.2456281323        0.6719589043       -1.7450938885
 C         -1.1817193616        0.2127466636       -0.7716104026
 C         -0.2059559058        0.6204372389        0.1235470690
 C         -0.1407113553       -0.0021345661        1.3679152866
 C         -1.0181987643       -1.0166624828        1.6987246160
 C         -1.9797912063       -1.4348534428        0.7949833975
 C         -2.0559216376       -0.8174936772       -0.4460777301
 N         -3.0279985418       -1.2358062357       -1.3672150713
 S         -4.5776290605       -1.5362012649       -0.8217130754
 O         -4.6400429304       -2.8435588802       -0.2162348942
 O         -5.4302387603       -1.3329928445       -1.9718912292
 C         -4.8856559659       -0.2856151981        0.4136063811
 C         -4.8306565015        1.0388801477        0.0265669392
 C         -5.0369533067        2.0242348325        0.9779708078
 C         -5.2922572531        1.6704877923        2.2942701545
 C         -5.3484420071        0.3365372553        2.6661771856
 C         -5.1420422588       -0.6534048244        1.7185470453
 H         -5.1756595732       -1.7022172488        1.9648704227
 H         -5.5488473164        0.0642095953        3.6898906751
 H         -5.4488656383        2.4401140870        3.0335216589
 H         -4.9952521501        3.0626254530        0.6908003109
 H         -4.6360040360        1.2806998507       -1.0058493607
 H         -3.0199534332       -0.7299547132       -2.2397655884
 H         -2.6582429369       -2.2398486742        1.0261758218
 H         -0.9520305029       -1.4920567954        2.6655536166
 H          0.6192475609        0.3158069598        2.0683140392
 C          0.8142708749        1.6801147680       -0.2094128091
 H          0.9637746832        2.3031791317        0.6830212139
 C          0.4289969988        2.5738853618       -1.3683390663
 C         -0.6233128776        3.6229527192       -1.1718411770
 C          0.8123812492        4.0216536346       -1.3312634360
 H          1.1187931441        4.4961212479       -2.2515598545
 H          1.3463455322        4.3742133327       -0.4611137775
 H         -1.3054364054        3.8292968586       -1.9825488369
 H         -1.0644692392        3.7050275590       -0.1902667472
 H          0.4806214868        2.0743827723       -2.3285818029
 O          3.0846346378        1.9970847898        1.4708419365
