  62
        -98.94203719
 C         -0.9672376465       -1.0791281680        0.7367549489
 C         -1.7185108966       -0.9671950003       -0.4552057392
 C         -2.4482406249        0.2971520566       -0.6546844889
 C         -2.3189433499        1.2873063515        0.2466257256
 C         -2.8719781971        2.6975380232        0.2549315692
 C         -4.0682606066        3.0726823463       -0.6167890184
 C         -5.3722632316        2.3586592429       -0.2663705211
 H         -6.1297415904        2.6659861009       -0.9908588396
 H         -5.7003437947        2.6925588317        0.7210630326
 C         -5.3008538452        0.8337769558       -0.2414878277
 H         -6.3048788309        0.4561271947       -0.0302203515
 H         -4.6560577700        0.5091797390        0.5776210427
 C         -4.8211304113        0.1805770806       -1.5370881185
 H         -5.4145518651        0.5481262940       -2.3763617998
 H         -4.9993278838       -0.8940956316       -1.4467665283
 C         -3.3285728989        0.3725341034       -1.8675424680
 H         -3.1519447832        1.3009520190       -2.4070504752
 H         -3.0155596931       -0.4455918644       -2.5230520958
 H         -3.8286879830        2.9267410127       -1.6662087100
 H         -4.2293989845        4.1451039953       -0.4751957595
 H         -3.1087758684        2.9171503678        1.3008425474
 H         -2.0332322335        3.3485239279       -0.0195001414
 O         -1.5387759671        1.1517086112        1.3589100572
 C         -0.8496016431       -0.0177650609        1.6305163593
 O         -0.1773296240        0.0140353992        2.6811468639
 H          1.4659311295       -0.3877116345        0.2263017298
 C          1.6490201641       -1.2830720708       -0.3499072636
 C          0.9137557314       -2.4284837660       -0.0707283649
 C          1.1722220578       -3.5783775608       -0.8035248789
 C          2.1191615468       -3.5609356888       -1.8141283798
 C          2.8099046016       -2.4037121853       -2.1235309814
 C          2.5684468388       -1.2512519906       -1.3832692343
 N          3.2503872386       -0.0542510620       -1.6473912003
 S          2.4709041352        1.4092640263       -1.4195753396
 O          1.0630389678        1.3359756092       -1.7365622110
 O          3.2445556006        2.3473853245       -2.2083672366
 C          2.7094419271        1.7838555793        0.3033613863
 C          3.9366213098        1.5272428287        0.8821064730
 C          4.1239416763        1.8467829420        2.2170461671
 C          3.0904663634        2.4174215083        2.9447200844
 C          1.8671345657        2.6756966905        2.3471696535
 C          1.6745196971        2.3585311628        1.0125988160
 H          0.7310771095        2.5243557204        0.5153142954
 H          1.0569029125        3.1062649901        2.9130870730
 H          3.2351683838        2.6590831470        3.9858539493
 H          5.0728498110        1.6460188662        2.6879674340
 H          4.7142386514        1.0782645847        0.2870753776
 H          3.8253978476       -0.0571885411       -2.4771716833
 H          3.5251719034       -2.3864915614       -2.9315827506
 H          2.3076538526       -4.4586239235       -2.3833047878
 H          0.6234824318       -4.4822941121       -0.5962455065
 C         -0.1387569347       -2.3237389546        1.0072072962
 H          0.3702007689       -2.1466016421        1.9660815725
 C         -1.0134216027       -3.5516383716        1.1335179208
 C         -0.5538379232       -4.7190739766        1.9529658488
 C         -1.6639871187       -3.8446232385        2.4509456187
 H         -2.6702702933       -4.2357503718        2.4530089668
 H         -1.4572859960       -3.1678427532        3.2673803905
 H          0.4074184751       -4.6414277004        2.4379008567
 H         -0.7999534713       -5.7146533513        1.6159365768
 H         -1.5890562230       -3.7474156738        0.2365722936
 O         -1.7809349760       -1.8786939858       -1.3221531344
