  62
        -98.93050918
 C         -2.1418892250       -0.8312238382       -0.3717794183
 C         -3.4901655277       -1.1377144954       -0.0499031719
 C         -4.3045007823       -0.0402542924        0.4872090149
 C         -3.7369984254        1.1586628715        0.7066903021
 C         -4.3930754446        2.3707738866        1.3135864501
 C         -5.5408218606        3.0046174478        0.5041190300
 C         -6.9386625216        2.5072677866        0.8927891020
 H         -6.9070581460        2.1381609067        1.9186697787
 H         -7.6269362197        3.3548845130        0.8860862375
 C         -7.5426735777        1.4344507250       -0.0184020176
 H         -7.9143785575        1.9085166564       -0.9296840789
 H         -8.4006188305        1.0003565517        0.4994658623
 C         -6.5982389820        0.3089319682       -0.4407196061
 H         -5.9089221716        0.6763053275       -1.2048562275
 H         -7.1926122711       -0.4757013396       -0.9131183209
 C         -5.7668966496       -0.2978442121        0.7063200539
 H         -6.0866096374        0.1020497069        1.6675178647
 H         -5.8927021690       -1.3822697950        0.7258141247
 H         -5.4990595576        4.0794498324        0.6875532557
 H         -5.3632846365        2.8518929391       -0.5601125684
 H         -4.7546165417        2.1089465054        2.3107664023
 H         -3.5925823364        3.1040101979        1.4324273985
 O         -2.4282361446        1.4017451180        0.4300736748
 C         -1.6006649989        0.4325083393       -0.1260532283
 O         -0.4437055303        0.8387632929       -0.3420658315
 H          1.2051523000       -0.9840319957       -1.4473164671
 C          1.1622099232       -1.5088598758       -0.5057875983
 C         -0.0301483154       -2.0838509086       -0.0977334446
 C         -0.0752350900       -2.7266665489        1.1356233453
 C          1.0481386621       -2.7920585631        1.9386476107
 C          2.2350324221       -2.2072302194        1.5334870887
 C          2.2845262816       -1.5517409968        0.3110219046
 N          3.4829886989       -0.9410704674       -0.1046744040
 S          4.3471711429       -0.0855307704        1.0687583260
 O          5.2007466856       -1.0174540905        1.7658897537
 O          3.4542342410        0.6872860579        1.9021652840
 C          5.3357466053        0.9910481715        0.0492037639
 C          6.6248475294        0.6223240806       -0.2838380816
 C          7.3714312439        1.4602963984       -1.0972679885
 C          6.8189346811        2.6440954533       -1.5623256685
 C          5.5226355228        3.0002551816       -1.2201227169
 C          4.7703463802        2.1671186801       -0.4073598873
 H          3.7614162704        2.4089858705       -0.1101684164
 H          5.0948885207        3.9214606804       -1.5820663476
 H          7.4015634054        3.2956615884       -2.1942379369
 H          8.3796508136        1.1882717471       -1.3647888526
 H          7.0120908946       -0.3040188195        0.1071267641
 H          3.3385959279       -0.3686484178       -0.9258033450
 H          3.1145090418       -2.2291119180        2.1573344383
 H          0.9995813273       -3.2943279840        2.8933854676
 H         -1.0081913345       -3.1634352067        1.4649711433
 C         -1.2888909159       -1.9650832314       -0.9167817694
 H         -1.8965964858       -2.8670032504       -0.7399264519
 C         -1.0236336102       -1.9109851028       -2.4137447625
 C         -2.1117434328       -1.4992064607       -3.3588742442
 C         -0.9008494592       -0.6342985183       -3.1877519835
 H         -0.1824245912       -0.5978080908       -3.9939618618
 H         -1.0016427700        0.2963677968       -2.6523041069
 H         -3.0424719059       -1.1648358346       -2.9239044753
 H         -2.2310855276       -2.0464448495       -4.2816377483
 H         -0.3900133091       -2.7326121760       -2.7341887753
 O         -3.9908852507       -2.2841827962       -0.1977897248
