  62
        -98.93966004
 C         -1.4387398426       -0.8902783016       -0.5052604068
 C         -2.6187811207       -1.0661651902        0.2605169227
 C         -3.4494294847        0.1234828884        0.5083747195
 C         -3.0551465838        1.3122521844        0.0157936901
 C         -3.6550775434        2.6968773850        0.1473271217
 C         -5.0787064797        2.8849079457        0.6650099682
 C         -6.1718799133        2.3607780608       -0.2658981008
 H         -7.1309554482        2.4528136709        0.2483307213
 H         -6.2069285175        2.9984722602       -1.1527470086
 C         -5.9983845389        0.9203943044       -0.7407972839
 H         -5.0864290382        0.8380115610       -1.3355083225
 H         -6.8366844864        0.6832519675       -1.4014035498
 C         -5.9660796886       -0.1331517278        0.3645340695
 H         -5.9991706693       -1.1148707953       -0.1154114205
 H         -6.8552172626       -0.0371029285        0.9906486612
 C         -4.7230482589       -0.1047148701        1.2707753172
 H         -4.8296987309        0.6280669630        2.0673914147
 H         -4.6252205781       -1.0873214267        1.7416038217
 H         -5.2287960814        3.9622438129        0.7767845780
 H         -5.1785439082        2.4500434691        1.6552087836
 H         -3.5710951106        3.1540466280       -0.8438903769
 H         -2.9708118944        3.2512701097        0.8000025764
 O         -1.9096894328        1.4373576923       -0.7116238348
 C         -1.0741901070        0.3659181392       -0.9854892672
 O         -0.0816931189        0.6818362397       -1.6696287062
 O         -2.9692510957       -2.1858516205        0.7230374705
 C         -0.5845629082       -2.1293449952       -0.7188810336
 C          0.4287935123       -2.2419354149        0.3964914425
 C          0.4049383786       -3.3241668081        1.2673668419
 C          1.3052789412       -3.4012556489        2.3150766475
 C          2.2305554888       -2.3952388921        2.5189181106
 C          2.2643198899       -1.3063469705        1.6517401821
 C          1.3804144360       -1.2480951763        0.5846635048
 H          1.3991497057       -0.3988172220       -0.0772730803
 N          3.2044726130       -0.2889289775        1.8459139625
 S          2.9700013174        1.3035478313        1.3836808786
 O          3.7766119686        2.0563383213        2.3243242396
 O          1.5705708804        1.6520072672        1.3306838704
 C          3.7579711710        1.3825652457       -0.2108727116
 C          3.0230291949        1.4852995985       -1.3732359408
 C          3.6971741132        1.5214609658       -2.5857181634
 C          5.0808214868        1.4577957874       -2.6154990150
 C          5.8048731302        1.3597712951       -1.4362180107
 C          5.1393976990        1.3213481298       -0.2230711547
 H          5.6614227553        1.2588036841        0.7172393515
 H          6.8816394924        1.3127350177       -1.4606195520
 H          5.5965905398        1.4861577868       -3.5624684454
 H          3.1279910820        1.5966365074       -3.4987162683
 H          1.9451397985        1.5248759852       -1.3310534888
 H          3.7408848880       -0.3590380151        2.6974464139
 H          2.9209130024       -2.4432250761        3.3473404647
 H          1.2766777971       -4.2448620666        2.9879725706
 H         -0.3402989577       -4.0941536628        1.1331291136
 H         -1.2772483884       -2.9768685056       -0.6213359527
 C          0.0827867143       -2.2119824021       -2.0758793549
 C          0.4937928189       -3.5549065222       -2.5984868353
 C         -0.6597795013       -2.8287679343       -3.2215116695
 H         -0.5348249012       -2.4005693929       -4.2045191273
 H         -1.6577404647       -3.1961182617       -3.0304362977
 H          1.4152565511       -3.6291571096       -3.1547928865
 H          0.2776086635       -4.4177669335       -1.9869301219
 H          0.7221676396       -1.3681679806       -2.2970007747
