  62
        -98.93313916
 C          1.9359208688        0.9225655900        0.6871288359
 C          2.1526546021        0.2796152567       -0.5533665954
 C          2.6672889402       -1.1054196036       -0.5052848962
 C          2.8363127414       -1.6969632623        0.6908653553
 C          3.3814072112       -3.0696606391        0.9824248218
 C          4.9103317083       -3.1452160001        0.8297688747
 C          5.4738220164       -2.4250281388       -0.3928356757
 H          6.5641092936       -2.4446277429       -0.3160148774
 H          5.1661549774       -1.3780741549       -0.3650023966
 C          5.0896056635       -3.0313397781       -1.7402089621
 H          5.4514788465       -4.0609632791       -1.7850703826
 H          5.6107606349       -2.4613438408       -2.5134519318
 C          3.5964331133       -3.0288578959       -2.0724808357
 H          3.0722267884       -3.8057263275       -1.5224987554
 H          3.4985508105       -3.2790671324       -3.1329304591
 C          2.9005465637       -1.6846683130       -1.8801171587
 H          1.9090720908       -1.7342043139       -2.3472037571
 H          3.4449259809       -0.9166523276       -2.4414137941
 H          5.2024692421       -4.1962205107        0.8034290303
 H          5.3587179176       -2.6921896636        1.7173295034
 H          2.8885713244       -3.8049171591        0.3530913585
 H          3.1225505422       -3.2952185447        2.0194289651
 O          2.5529056067       -1.0586354165        1.8635999976
 C          2.0908608443        0.2414389374        1.8949839791
 O          1.8560878311        0.6765647501        3.0421869500
 O          1.9448006068        0.8253012149       -1.6685670368
 C          1.3978485608        2.3401408350        0.7679040298
 C          0.2395410651        2.5030542743       -0.1868219701
 C          0.1358136106        3.5285208018       -1.1164369928
 C         -0.9752157482        3.6149697702       -1.9380941319
 C         -1.9997522823        2.6924010503       -1.8484843010
 C         -1.8995253564        1.6533976371       -0.9276794057
 C         -0.7922729551        1.5753323821       -0.1015177021
 H         -0.7227076602        0.7695878351        0.6168895336
 N         -2.9014081630        0.6716666078       -0.8533099122
 S         -3.0923890055       -0.2419292482        0.5453334026
 O         -3.1773378816        0.6194246091        1.7047659656
 O         -2.0760858945       -1.2653533018        0.5777408629
 C         -4.6829536231       -0.9789362206        0.2185216809
 C         -5.8191397871       -0.4022581651        0.7542868849
 C         -7.0542338504       -0.9637166393        0.4703625769
 C         -7.1323227827       -2.0845161757       -0.3425220978
 C         -5.9833011462       -2.6532486949       -0.8719327444
 C         -4.7452449796       -2.0974365920       -0.5909943266
 H         -3.8244994515       -2.5087211187       -0.9710944552
 H         -6.0471833077       -3.5265152217       -1.5008307912
 H         -8.0942870513       -2.5196908157       -0.5624743672
 H         -7.9484865456       -0.5260039014        0.8836933195
 H         -5.7079066288        0.4627260159        1.3881652817
 H         -3.7832861544        0.9639097561       -1.2501711614
 H         -2.8626932296        2.7603833612       -2.4929494496
 H         -1.0431192437        4.4151340245       -2.6595432879
 H          0.9311531901        4.2489693958       -1.2129882305
 H          0.9907566103        2.4265276070        1.7906671009
 C          2.4584946150        3.4227066567        0.6309507683
 C          3.8948160339        3.1429182273        0.9563959366
 C          3.4844210467        3.4015182687       -0.4605151197
 H          3.7715822630        4.3402109485       -0.9113563254
 H          3.4560548609        2.5734085638       -1.1502512557
 H          4.4577452552        3.9017368588        1.4790578314
 H          4.1551239451        2.1333182819        1.2406778121
 H          2.0832829683        4.3965494627        0.9305665312
