  62
        -98.93767952
 C         -1.8257749569       -0.8623842713        0.1240012915
 C         -2.3770383472        0.4401199300        0.1304995778
 C         -3.8132721362        0.5360029847        0.4478778796
 C         -4.5070312039       -0.5824777914        0.7202340973
 C         -5.9589260216       -0.7163045706        1.1068728116
 C         -6.9785224321        0.1354510644        0.3384623328
 C         -6.6287987937        0.3954658156       -1.1339817161
 H         -5.8016146598       -0.2463970901       -1.4418604061
 H         -7.4894087987        0.1377661117       -1.7540949624
 C         -6.2706674757        1.8572109286       -1.4129423096
 H         -6.3950347735        2.0518676758       -2.4809762347
 H         -6.9761986812        2.4985332023       -0.8801045062
 C         -4.8454784742        2.2661758892       -1.0421953737
 H         -4.7590001824        3.3469304311       -1.1789169401
 H         -4.1347910915        1.8000424313       -1.7302346258
 C         -4.4056781433        1.9144820530        0.3884392736
 H         -3.6009560023        2.5994399723        0.6699110753
 H         -5.2251737926        2.0331984466        1.0931339590
 H         -7.9346579930       -0.3871908476        0.3985747343
 H         -7.1114582381        1.0904603483        0.8448046582
 H         -6.1914592872       -1.7753141595        0.9717385891
 H         -6.0471152215       -0.5013471449        2.1757933548
 O         -3.9293400477       -1.8176208636        0.7128207370
 C         -2.5898104501       -1.9915136923        0.4123186479
 O         -2.2037223851       -3.1776251974        0.4410990117
 O         -1.7054255474        1.4776765181       -0.1066575966
 C         -0.3592684446       -1.0632713332       -0.2138369947
 C          0.5051910093       -0.2613578297        0.7274874429
 C          0.2650074195       -0.3527100472        2.0969619743
 C          1.0144336603        0.3774695400        2.9973454184
 C          2.0330777293        1.2032154477        2.5538758584
 C          2.2909430437        1.2908162337        1.1921735939
 C          1.5353864744        0.5544121549        0.2877636288
 H          1.7491076729        0.6559913588       -0.7628400282
 N          3.3173418937        2.1183977124        0.7143590139
 S          4.2683677376        1.6159124854       -0.5604387072
 O          5.4983236193        2.3642552151       -0.4098718985
 O          3.5783104580        1.7924567673       -1.8128448077
 C          4.5720337334       -0.1185970767       -0.2675481666
 C          4.3122866154       -1.0334295590       -1.2662701338
 C          4.5517857315       -2.3772650971       -1.0262122695
 C          5.0420540446       -2.7812526067        0.2054096817
 C          5.3032785332       -1.8490936307        1.1982338883
 C          5.0693453816       -0.5045312651        0.9618771414
 H          5.2723139497        0.2422257715        1.7119088399
 H          5.6869981309       -2.1665504997        2.1543756520
 H          5.2228355321       -3.8281274857        0.3919080822
 H          4.3528024668       -3.1021027710       -1.7996299892
 H          3.9253552226       -0.6776638246       -2.2071021297
 H          3.8560277328        2.5869685719        1.4274336408
 H          2.6145281685        1.7830128558        3.2544005822
 H          0.8071077074        0.3032805396        4.0542180449
 H         -0.5317160718       -0.9972520525        2.4432227471
 H         -0.1518927816       -2.1302188547       -0.0447964011
 C         -0.1234577832       -0.7468597909       -1.6758624448
 C          0.9517500185       -1.4549365744       -2.4411453174
 C         -0.4887234436       -1.7730922190       -2.7045825290
 H         -0.9321451293       -1.4405831530       -3.6313042530
 H         -0.8801711038       -2.7141710211       -2.3458834138
 H          1.4980933486       -0.8986753191       -3.1883494159
 H          1.5420747726       -2.1856500154       -1.9095675484
 H         -0.3215854105        0.2921322436       -1.9153197110
