  62
        -98.94878437
 C         -0.9364113219       -1.2909500970        0.0436277456
 C         -1.9079882066       -1.0441934848        1.0403246168
 C         -2.6383407526        0.2245223163        0.9256474556
 C         -2.3251578898        1.0741913415       -0.0696311255
 C         -3.0169137344        2.3817284280       -0.3250825867
 C         -4.1907088143        2.2094934587       -1.2990391931
 C         -5.1347247423        1.0658220405       -0.9284070061
 H         -5.9417756898        1.0580222705       -1.6640560667
 H         -4.6009517151        0.1177644040       -1.0250494645
 C         -5.7311499509        1.1673393525        0.4823881637
 H         -6.7988470176        0.9443349699        0.4288122823
 H         -5.6319938995        2.1874658069        0.8552114915
 C         -5.1253983969        0.1970978397        1.4985174093
 H         -5.1384758712       -0.8166345161        1.0901271251
 H         -5.7584090179        0.1985922108        2.3899735254
 C         -3.6948476505        0.5126002226        1.9547235236
 H         -3.6336234906        1.5500787106        2.2912477752
 H         -3.4661139942       -0.1345240308        2.8070417011
 H         -4.7488793118        3.1467486394       -1.3364203513
 H         -3.7879122797        2.0115114943       -2.2947192765
 H         -3.3708097305        2.7886051744        0.6204172101
 H         -2.2943362051        3.0756986793       -0.7570796474
 O         -1.3676838462        0.8143802582       -0.9949065100
 C         -0.6476751445       -0.3705736086       -0.9642832891
 O          0.2010887325       -0.4822584012       -1.8674238009
 O         -2.1521089942       -1.8477245950        1.9828756750
 C         -0.1394704213       -2.5788936098        0.0929196675
 C          1.3432150091       -2.3041664598        0.1554691277
 C          2.2842357315       -3.1629824348       -0.4013794694
 C          3.6356331311       -2.8818670306       -0.3056803411
 C          4.0779617250       -1.7356453742        0.3289516795
 C          3.1448822832       -0.8720657643        0.8913620124
 C          1.7941560403       -1.1700521682        0.8170942053
 H          1.0855005943       -0.4945776943        1.2733702467
 N          3.5505239375        0.3055884323        1.5406167187
 S          2.6490740025        1.7000411044        1.4022535132
 O          3.5648129097        2.7492432095        1.8053893435
 O          1.4412423014        1.6037428622        2.1860245458
 C          2.2445508918        1.9287846857       -0.3204154105
 C          3.0988580425        1.4865033320       -1.3094116455
 C          2.7787482445        1.7412378454       -2.6326103758
 C          1.6262232344        2.4429984830       -2.9441410694
 C          0.7852667095        2.8915690255       -1.9396465477
 C          1.0942994539        2.6304850283       -0.6154289235
 H          0.4562037670        2.9414558882        0.1977300800
 H         -0.1162732479        3.4305566590       -2.1842179593
 H          1.3761563350        2.6345044038       -3.9757259714
 H          3.4269971728        1.3844078218       -3.4166601158
 H          3.9908073416        0.9394699712       -1.0516479504
 H          4.5406537026        0.4996309352        1.5043166767
 H          5.1315093748       -1.5096027010        0.3927184262
 H          4.3544592271       -3.5587892055       -0.7413326716
 H          1.9570392593       -4.0536626644       -0.9123288065
 H         -0.4357858999       -3.0724728386        1.0316339760
 C         -0.5235447790       -3.4750182005       -1.0691305658
 C         -0.5696226022       -4.9642161281       -0.9055108606
 C         -1.8430080640       -4.1841084302       -1.0258186038
 H         -2.4173905809       -4.2642453570       -1.9365005023
 H         -2.4464325848       -4.0483078360       -0.1398494581
 H         -0.2712414194       -5.5839453550       -1.7377368345
 H         -0.3183890838       -5.3708099104        0.0626030754
 H         -0.2028738022       -3.0722527762       -2.0234087479
