  62
        -98.93459793
 C         -1.9356181443       -1.4445349348        0.5522721947
 C         -2.4263891232       -0.8104924814       -0.6177204643
 C         -3.3437777444        0.3180890310       -0.3930921236
 C         -3.6779266491        0.6818599101        0.8567752854
 C         -4.6355107632        1.7777739280        1.2395268633
 C         -4.0089176056        3.1783592571        1.2698085628
 C         -3.6888188135        3.7761053483       -0.1007617504
 H         -4.5754927063        3.7249060806       -0.7333160442
 H         -3.4621200261        4.8326255560        0.0559877883
 C         -2.5019682983        3.1159179831       -0.8163099909
 H         -1.8455502199        3.8909445682       -1.2167422019
 H         -1.9186424867        2.5373563541       -0.0968548099
 C         -2.8868942719        2.2024836203       -1.9796628964
 H         -1.9733384099        1.7572474020       -2.3815662338
 H         -3.3536118191        2.7923522817       -2.7715521713
 C         -3.8394110116        1.0626014532       -1.5962931781
 H         -4.8410691474        1.4525905530       -1.4162214146
 H         -3.8826126815        0.3566199106       -2.4289895151
 H         -4.7157992703        3.8400839115        1.7758345723
 H         -3.0997644609        3.1406824786        1.8744405151
 H         -5.4865012861        1.7736224697        0.5576549736
 H         -4.9942883310        1.5393441097        2.2432882918
 O         -3.1777570257        0.0537582663        1.9548398622
 C         -2.2861836651       -0.9960989918        1.8294348814
 O         -1.8815180843       -1.4479474726        2.9222428224
 H          1.1281873865       -1.7481611745        1.8127639999
 C          1.3269919204       -1.7742272826        0.7487108471
 C          0.3327482440       -2.2281969030       -0.1132213285
 C          0.6012662712       -2.2198189611       -1.4771820339
 C          1.8343474149       -1.8028178718       -1.9498646823
 C          2.8242422170       -1.3734631755       -1.0856852926
 C          2.5591413877       -1.3459678147        0.2772521971
 N          3.5431738042       -0.8893174237        1.1703642489
 S          4.4221407690        0.4725824564        0.7601694383
 O          5.4695367432        0.1106635752       -0.1619013203
 O          4.8560644364        1.0338053335        2.0197173317
 C          3.2636429589        1.5661080914       -0.0433160114
 C          2.1962697277        2.0382317992        0.6945628253
 C          1.2751735613        2.8722186719        0.0827170552
 C          1.4326361988        3.2132127847       -1.2518562282
 C          2.5109157309        2.7337812119       -1.9783636154
 C          3.4377229368        1.9024587153       -1.3701971165
 H          4.2925763075        1.5113041331       -1.8973380760
 H          2.6307963714        3.0033591258       -3.0151949385
 H          0.7098345709        3.8577430427       -1.7264596601
 H          0.4377216566        3.2507231730        0.6469940771
 H          2.1024289969        1.7577002014        1.7319198603
 H          3.2426410082       -0.8581999200        2.1332575972
 H          3.7929180465       -1.0634094993       -1.4418275230
 H          2.0249686671       -1.8126767361       -3.0122028388
 H         -0.1611117867       -2.5063105949       -2.1787885792
 C         -0.9775482325       -2.6317463064        0.5182507859
 H         -0.7546444650       -2.8182403788        1.5799019255
 C         -1.6546834902       -3.9117386981        0.0405816497
 C         -2.1056268520       -4.2156848933       -1.3552235175
 C         -0.9528407525       -4.9662462646       -0.7620312446
 H         -1.1006630222       -6.0002265816       -0.4876761560
 H          0.0397704416       -4.7443541904       -1.1220290638
 H         -1.9324001420       -3.4845819529       -2.1259536934
 H         -3.0486264383       -4.7332629223       -1.4646354689
 H         -2.3210671331       -4.2764168210        0.8193703716
 O         -2.1387418295       -1.1491166533       -1.7908339263
