  62
        -98.94725593
 C         -0.9377809659       -1.5555502245       -0.8632351610
 C         -2.2402258171       -1.5361428811       -0.3001341073
 C         -3.0444843040       -0.3372539000       -0.5507597930
 C         -2.5318223964        0.6625438195       -1.2893270094
 C         -3.2076953525        1.9678544687       -1.6093828934
 C         -3.0629934708        3.0141663656       -0.4954468332
 C         -3.9331080444        2.7702727249        0.7381829341
 H         -3.9246194858        3.6927251874        1.3225340969
 H         -4.9633005924        2.5880234559        0.4289562862
 C         -3.4474728880        1.6211314681        1.6330792133
 H         -2.4007619930        1.3987791546        1.4081197599
 H         -3.4798256832        1.9390024264        2.6784634133
 C         -4.2732004653        0.3381488369        1.5283640874
 H         -3.8044557466       -0.4187706483        2.1626037935
 H         -5.2812294584        0.5209147468        1.9090598455
 C         -4.3855782016       -0.2362362642        0.1105648732
 H         -5.0603815604        0.3737953054       -0.4898923604
 H         -4.7966795480       -1.2463967916        0.1840759735
 H         -2.0153514790        3.0571777193       -0.1849239281
 H         -3.3290975269        3.9860147235       -0.9185453481
 H         -2.7321932525        2.3541224860       -2.5136171809
 H         -4.2646127800        1.7983946388       -1.8171866954
 O         -1.3026645201        0.5886909311       -1.8565549731
 C         -0.4591983141       -0.4909645329       -1.6275051504
 O          0.6552038223       -0.3641942738       -2.1728758214
 O         -2.7086474270       -2.4857563141        0.3854690464
 C         -0.0570782339       -2.7308950126       -0.4726045841
 C          0.6839128351       -2.3781456873        0.7975269396
 C          0.7131845386       -3.2369605752        1.8894941652
 C          1.3322894028       -2.8542256280        3.0668977730
 C          1.8949223924       -1.5963060548        3.1922396945
 C          1.8716168108       -0.7325686727        2.1034866225
 C          1.3097521663       -1.1455078174        0.9065681913
 H          1.3200725542       -0.4723040834        0.0653836697
 N          2.3917327154        0.5682805004        2.1770286221
 S          1.5712292133        1.8001529749        1.3828604409
 O          1.9380275927        2.9992157851        2.1124027361
 O          0.1533703243        1.5363030501        1.2979205116
 C          2.3073972606        1.8946229929       -0.2329408969
 C          3.6198693422        1.5057574880       -0.4089270308
 C          4.1933778246        1.6426861291       -1.6623750020
 C          3.4528781292        2.1696681475       -2.7090765636
 C          2.1382645724        2.5599117551       -2.5138216325
 C          1.5580535268        2.4223660198       -1.2637967158
 H          0.5307204918        2.6945344417       -1.0776954541
 H          1.5569242943        2.9586579991       -3.3296692091
 H          3.8998858216        2.2708926544       -3.6856301971
 H          5.2143905186        1.3337709855       -1.8201770012
 H          4.1637625787        1.0924132652        0.4243775928
 H          2.7035228614        0.8583600682        3.0926565780
 H          2.3375692282       -1.2803995813        4.1245719427
 H          1.3495853413       -3.5306016036        3.9080193577
 H          0.2265578926       -4.1985042392        1.8214004820
 H         -0.7469379216       -3.5534485670       -0.2378507728
 C          0.9026293031       -3.1987643051       -1.5469389029
 C          1.4021538070       -4.6111278693       -1.5120211706
 C          0.4331013808       -4.1845794445       -2.5726473671
 H          0.7860483574       -4.0765656335       -3.5868879008
 H         -0.5875701843       -4.5314377733       -2.5008867865
 H          2.4254554682       -4.8005669157       -1.7968130230
 H          1.0384640882       -5.2536031639       -0.7246526583
 H          1.5871828447       -2.4277059576       -1.8745381745
