  62
        -98.93289416
 C         -2.0701501702       -1.4380865547       -0.2184881701
 C         -1.6846030483       -0.1196093907        0.1239156619
 C         -2.7219845819        0.7023866408        0.7666550492
 C         -3.9440793055        0.1828833568        0.9790591711
 C         -5.1084447523        0.9362532155        1.5522966741
 C         -5.9345973921        1.6080784011        0.4458996515
 C         -5.0991238122        2.4045859300       -0.5566380103
 H         -4.4614380183        1.7157004221       -1.1151717874
 H         -5.7923622927        2.8521513501       -1.2721799596
 C         -4.2302799196        3.5044030779        0.0697130752
 H         -4.5920344620        3.7357517416        1.0722694383
 H         -4.3304833921        4.4126930390       -0.5281971831
 C         -2.7381137628        3.1735671403        0.1338427724
 H         -2.3932675337        2.8515846565       -0.8519436446
 H         -2.1983267233        4.0888890679        0.3910854749
 C         -2.3423013063        2.1029294303        1.1582863162
 H         -1.2514874607        2.1053663255        1.2438642594
 H         -2.7604054823        2.3559894448        2.1346524034
 H         -6.6680760750        2.2662088162        0.9153622894
 H         -6.4759978984        0.8321930570       -0.1005509174
 H         -5.7439551029        0.2310836171        2.0907222805
 H         -4.7415591712        1.6851418408        2.2517025943
 O         -4.2745792993       -1.0906963481        0.6425000636
 C         -3.3503960038       -1.9288267183        0.0419109514
 O         -3.7801021323       -3.0738324819       -0.2082167326
 H          1.4928087287       -1.3091120875       -1.4707991634
 C          1.4007663779       -1.8001408442       -0.5180179615
 C          0.2052750663       -2.3763645971       -0.1186415525
 C          0.1564704527       -2.9478228579        1.1543839928
 C          1.2529842686       -2.9398548661        1.9929504508
 C          2.4462413139       -2.3725438995        1.5807560155
 C          2.5113708815       -1.7973291037        0.3209935044
 N          3.7298315813       -1.2390159162       -0.1150834735
 S          4.4154709724        0.0613606310        0.6868932985
 O          5.8239112589        0.0369927194        0.3595860433
 O          4.0865652760       -0.0203523443        2.0872899219
 C          3.6876547148        1.5222758200       -0.0396415234
 C          4.5086691772        2.4462141759       -0.6572926575
 C          3.9408715091        3.5734313198       -1.2288891255
 C          2.5665457572        3.7541258612       -1.1809443837
 C          1.7571807843        2.8148129183       -0.5615251130
 C          2.3186238991        1.6886418362        0.0196509423
 H          1.6929585824        0.9467522907        0.4901930321
 H          0.6854634160        2.9313623857       -0.5315105241
 H          2.1229190264        4.6286822307       -1.6305023442
 H          4.5695831057        4.3038763105       -1.7123584330
 H          5.5702360819        2.2598893569       -0.6779296409
 H          3.7688740575       -1.0761224956       -1.1114252551
 H          3.3114388809       -2.3492938219        2.2223346349
 H          1.1819516798       -3.3841039232        2.9745884986
 H         -0.7733600087       -3.3909462651        1.4866549581
 C         -1.0926394883       -2.3989673297       -0.8892223017
 H         -1.5278460589       -3.3988701586       -0.7300893364
 C         -1.1394282421       -2.1808836072       -2.3950577847
 C         -0.5009784513       -1.0412570789       -3.1270528635
 C         -0.0154456570       -2.4440597977       -3.3504554778
 H         -0.2595739259       -2.9161558641       -4.2907899116
 H          0.9395569625       -2.7457034462       -2.9523468870
 H          0.0931915970       -0.3416848981       -2.5616974689
 H         -1.0724632988       -0.5715009819       -3.9151846856
 H         -2.1301887568       -2.4582218930       -2.7496484939
 O         -0.5433491467        0.3582843846       -0.0889593374
