  62
        -98.94250566
 C          1.9430506863        1.4306159375        0.0937090450
 C          1.7041287942        0.0593248796        0.3527847968
 C          2.8915760114       -0.7499031128        0.6691938483
 C          4.1010557530       -0.1640844745        0.7151284691
 C          5.3957349237       -0.8854486371        0.9494864839
 C          6.0214424820       -1.3445899277       -0.3754057167
 C          5.0491791425       -2.0787643559       -1.2992279003
 H          4.2747730200       -1.3823310275       -1.6292815659
 H          5.6094011990       -2.3777511619       -2.1878809839
 C          4.3862760858       -3.3137439449       -0.6730430824
 H          4.4160699260       -4.1311549702       -1.3965526885
 H          4.9535060797       -3.6344555442        0.2015287472
 C          2.9204616088       -3.1171018829       -0.2819275012
 H          2.4965712269       -4.0983458549       -0.0524507276
 H          2.3662833424       -2.7116269389       -1.1324723058
 C          2.6741107341       -2.2133856284        0.9325224035
 H          3.2877595638       -2.5487156165        1.7708908072
 H          1.6220409558       -2.3110213118        1.2159366899
 H          6.8704691568       -1.9923664525       -0.1496580077
 H          6.3970796761       -0.4651858149       -0.9039812054
 H          6.0851309075       -0.2030523000        1.4494555064
 H          5.2169182850       -1.7431143493        1.5951126282
 O          4.2865525318        1.1643034685        0.5031248120
 C          3.2186956220        1.9916208891        0.1948780990
 O          3.5269144750        3.1908016692        0.0455323927
 O          0.5668014685       -0.4751849694        0.3248648515
 C          0.8094882255        2.3786060596       -0.2562561076
 C         -0.3817735802        2.1224859079        0.6355460073
 C         -0.2158684991        2.2295253934        2.0147197994
 C         -1.2740618059        2.0051016270        2.8725090630
 C         -2.5223537812        1.6737079695        2.3745012568
 C         -2.7029287920        1.5743825238        1.0003318049
 C         -1.6363164899        1.8049000062        0.1400451293
 H         -1.8010597338        1.7045042605       -0.9190689288
 N         -3.9743907670        1.2908951144        0.4765397399
 S         -4.2571310563        0.2371903811       -0.7877981841
 O         -3.4962897264        0.6334565595       -1.9447150480
 O         -5.6963009504        0.2473154527       -0.9395165292
 C         -3.7461028865       -1.3744097218       -0.2162507194
 C         -2.4027465905       -1.6519291665       -0.0627157289
 C         -2.0325815947       -2.9036287940        0.4048769683
 C         -2.9984517437       -3.8500786474        0.7077201241
 C         -4.3440149360       -3.5533137614        0.5493246066
 C         -4.7230503074       -2.3040431208        0.0866840019
 H         -5.7561798526       -2.0300825170       -0.0542017024
 H         -5.0958829287       -4.2892919593        0.7852579032
 H         -2.7007880599       -4.8221309133        1.0687345306
 H         -0.9829241847       -3.1174553961        0.5290727978
 H         -1.6547003012       -0.9096572726       -0.2894990305
 H         -4.6941222063        1.1828122545        1.1764143045
 H         -3.3505075798        1.4971422547        3.0440992093
 H         -1.1275117871        2.0848203180        3.9392823072
 H          0.7616274298        2.4824584805        2.4038839146
 H          1.1936814697        3.3852505089       -0.0198249185
 C          0.4518480978        2.3852588342       -1.7354379420
 C          1.4677603897        2.0599214413       -2.7882329282
 C          0.3292886211        1.1214394169       -2.5302581564
 H         -0.4655552522        1.0489383747       -3.2587553946
 H          0.5352163674        0.1923057527       -2.0227902053
 H          1.4643407669        2.6403733634       -3.6986173997
 H          2.4559413368        1.7702459964       -2.4604591173
 H         -0.2473949778        3.1795542405       -1.9801591322
