  62
        -98.93683091
 C         -2.2700072688       -0.6830946621       -0.0108686127
 C         -3.1531140457       -0.1824806189        0.9822396238
 C         -4.0425718179        0.9226239149        0.5927950621
 C         -3.9817648703        1.4013845859       -0.6611116956
 C         -4.7561093249        2.5412714293       -1.2741014389
 C         -6.2504898337        2.6432152480       -0.9407626464
 C         -6.9644066904        1.2979203710       -0.7437216232
 H         -7.8608912170        1.2775046531       -1.3662029975
 H         -6.3207090417        0.4806047470       -1.0735665857
 C         -7.3932303401        1.0562836767        0.7055899331
 H         -7.8132800001        1.9817663451        1.1054894626
 H         -8.1873544574        0.3058132815        0.7163156888
 C         -6.2909763081        0.5619623137        1.6415162586
 H         -6.6961910686        0.5389699834        2.6559644089
 H         -6.0181867248       -0.4647194377        1.3828445113
 C         -5.0014962457        1.3991450822        1.6457106794
 H         -4.5002645882        1.2394255981        2.6041071647
 H         -5.2194810304        2.4591271955        1.5405838139
 H         -6.3839542663        3.2501753074       -0.0464433911
 H         -6.7196129331        3.1875072257       -1.7621929408
 H         -4.6288964849        2.4227294041       -2.3529619762
 H         -4.2623203807        3.4761909181       -0.9932472655
 O         -3.1212451391        0.8923716721       -1.5853724551
 C         -2.2516001622       -0.1478369720       -1.2973738661
 O         -1.5408699768       -0.4751562910       -2.2708001713
 O         -3.1932070458       -0.6417018008        2.1541493239
 C         -1.3649531795       -1.8306502970        0.4043452120
 C          0.0348173069       -1.3601495049        0.7229805392
 C          0.5783504568       -1.5501230413        1.9880942025
 C          1.8685789008       -1.1364315853        2.2696054515
 C          2.6393446543       -0.5197838331        1.3004951401
 C          2.1051968947       -0.3235453091        0.0335582500
 C          0.8148826657       -0.7499215251       -0.2487918620
 H          0.4045112055       -0.5945231120       -1.2357176781
 N          2.8634481790        0.3301721170       -0.9520346846
 S          4.4459739511       -0.1591273561       -1.2142941576
 O          4.7490985989        0.2420439397       -2.5705911131
 O          4.6286553702       -1.5579230689       -0.9023048468
 C          5.3938180249        0.8452404537       -0.0895486354
 C          6.2690436731        0.2496922261        0.7975181948
 C          7.0042693769        1.0532825964        1.6552114971
 C          6.8530963559        2.4306390412        1.6097920203
 C          5.9719429795        3.0134337754        0.7109474471
 C          5.2347346893        2.2158812418       -0.1495968390
 H          4.5418937579        2.6290167384       -0.8637833922
 H          5.8569410583        4.0849422696        0.6783073803
 H          7.4252316212        3.0541820547        2.2785080761
 H          7.6901202248        0.6023053134        2.3542605475
 H          6.3494915546       -0.8256947595        0.8005961422
 H          2.3696904242        0.4459911521       -1.8254687042
 H          3.6437201319       -0.1929734005        1.5146152683
 H          2.2781741113       -1.2917609701        3.2559599528
 H         -0.0221119871       -2.0165530072        2.7553567865
 H         -1.8044626165       -2.2164873887        1.3340492394
 C         -1.3253363189       -2.9590781947       -0.6086465473
 C         -0.9325576134       -4.3313175303       -0.1538811322
 C         -2.3530618764       -4.0465213942       -0.5378327639
 H         -2.7332342710       -4.4564334776       -1.4615181829
 H         -3.0910107314       -3.9856039643        0.2488761789
 H         -0.3317118399       -4.9390307890       -0.8130283875
 H         -0.7081026671       -4.4658434570        0.8933296617
 H         -1.0033905136       -2.6435323904       -1.5928071739
