  62
        -98.94056388
 C         -2.4823659681       -1.2069351967        0.0420277824
 C         -2.4642693236       -0.0096274843       -0.7128819764
 C         -3.7771659713        0.5925083887       -0.9781973832
 C         -4.8944625807       -0.0151883389       -0.5390166466
 C         -6.3049159491        0.4653530071       -0.7487403891
 C         -6.7662002499        1.5093147888        0.2776149077
 C         -6.1459603843        2.8978841904        0.1171760879
 H         -6.2730740946        3.2347452520       -0.9120133968
 H         -6.7137050075        3.5778272965        0.7553615178
 C         -4.6632659403        2.9787464157        0.5071289328
 H         -4.3954259982        2.1067860370        1.1082486971
 H         -4.4975689133        3.8598419584        1.1310408820
 C         -3.7002779602        3.0753253608       -0.6764279451
 H         -2.6781340350        3.0848882136       -0.2883274471
 H         -3.8671262172        4.0137856519       -1.2099307921
 C         -3.8126883175        1.9177413707       -1.6772649546
 H         -4.7239695661        2.0154554415       -2.2669494297
 H         -2.9522415445        1.9610146749       -2.3497889813
 H         -7.8498817052        1.6054830937        0.1794177290
 H         -6.5554828660        1.1297316530        1.2800203696
 H         -6.4076808488        0.8718026891       -1.7551227606
 H         -6.9483551757       -0.4125112237       -0.6599610277
 O         -4.8686637616       -1.1836155542        0.1563720931
 C         -3.6682168287       -1.7929807149        0.4837612116
 O         -3.7873360792       -2.8342649407        1.1609436286
 O         -1.4107997586        0.5307193938       -1.1421319926
 C         -1.1774438654       -1.8976939089        0.3916345372
 C         -0.2520040114       -0.9383276947        1.1002205725
 C         -0.7510208575       -0.1706387871        2.1497022260
 C          0.0608117348        0.7245089180        2.8177329062
 C          1.3884185034        0.8715481839        2.4559254803
 C          1.9031479914        0.0952750573        1.4248861527
 C          1.0848498138       -0.8076951839        0.7591105796
 H          1.5066212867       -1.3910736769       -0.0412397933
 N          3.2648874921        0.1878139953        1.0818771085
 S          3.7367561816        0.1054633180       -0.5377086617
 O          3.0575686371        1.1170203832       -1.3163592328
 O          3.6117838339       -1.2538210838       -0.9979768102
 C          5.4632435634        0.5203390550       -0.3652514507
 C          6.3413503996       -0.4642129568        0.0465374531
 C          7.6791371909       -0.1426706003        0.2110495894
 C          8.1146516315        1.1506859015       -0.0371319076
 C          7.2224035270        2.1275460886       -0.4524478520
 C          5.8825999044        1.8126920652       -0.6175311653
 H          5.1546355807        2.5366179971       -0.9473328700
 H          7.5643190261        3.1310609527       -0.6484085062
 H          9.1565942737        1.3981791706        0.0908985475
 H          8.3764475646       -0.9001099795        0.5307697064
 H          5.9587273958       -1.4565929384        0.2184602456
 H          3.7143988403        0.9764064214        1.5289091330
 H          2.0205197442        1.5790955693        2.9711030651
 H         -0.3440926875        1.3203064073        3.6222119332
 H         -1.7915551357       -0.2793881586        2.4261594014
 H         -1.4363837443       -2.7057249382        1.0923736211
 C         -0.5670231291       -2.5112200899       -0.8514139396
 C          0.2817796697       -3.7414829059       -0.7491535070
 C         -1.0891390064       -3.8243899269       -1.3484056316
 H         -1.1811068597       -3.9726580681       -2.4138957132
 H         -1.8730930409       -4.2935804846       -0.7715285526
 H          1.1391162863       -3.8279912167       -1.4000521566
 H          0.4307306055       -4.1638278707        0.2332090877
 H         -0.2969358884       -1.7669419859       -1.5934191920
