  62
        -98.93994168
 C         -2.5024720932       -1.1933628657       -0.0756103842
 C         -2.5145430868        0.0038370745       -0.8313355685
 C         -3.8313552084        0.6336829945       -1.0089111363
 C         -4.9203482332        0.0494545762       -0.4770742991
 C         -6.3076606864        0.6199354507       -0.5229577316
 C         -6.5847934435        1.4995914547        0.7046631128
 C         -5.4885848864        2.5259241495        0.9916177150
 H         -5.8062332818        3.1056984147        1.8609576263
 H         -4.5723586445        2.0014339367        1.2728326034
 C         -5.1876250036        3.4773959578       -0.1747528420
 H         -6.0145860178        3.4654781861       -0.8856261383
 H         -5.1086981298        4.4945985036        0.2144764697
 C         -3.8811313745        3.1809962870       -0.9133721065
 H         -3.0619984295        3.0988122434       -0.1941675389
 H         -3.6590584311        4.0290592300       -1.5665906682
 C         -3.8812239080        1.9192356116       -1.7855568190
 H         -4.7432997338        1.9333482813       -2.4554072082
 H         -2.9717793787        1.9358280836       -2.3934202233
 H         -7.5357252415        2.0133993778        0.5530818636
 H         -6.6835959165        0.8518399050        1.5787710730
 H         -6.4253963755        1.2021009246       -1.4347041961
 H         -7.0198906139       -0.2066331733       -0.5349751216
 O         -4.8711855394       -1.1153909134        0.2191978778
 C         -3.6651473940       -1.7549270029        0.4520470207
 O         -3.7576260690       -2.7967838523        1.1325984937
 H          1.3409590922       -0.9585817481       -0.4561197401
 C          0.9693885426       -0.5787593338        0.4803280210
 C         -0.2747562369       -0.9586247383        0.9550823787
 C         -0.7146784413       -0.4386534892        2.1706688065
 C          0.0701720774        0.4427992646        2.8872849976
 C          1.3123663747        0.8218796281        2.4089122734
 C          1.7583048569        0.3134417000        1.1948827246
 N          2.9952473307        0.7182007716        0.6697435151
 S          3.9030452194       -0.3528324627       -0.2623800280
 O          3.3754620557       -0.3884742321       -1.6025656778
 O          4.0179242036       -1.6264515819        0.4132964315
 C          5.4707254400        0.4972533430       -0.2591051448
 C          5.6207180268        1.5958302546       -1.0847388918
 C          6.8212493610        2.2874255812       -1.0679766960
 C          7.8464015170        1.8714050367       -0.2310431588
 C          7.6822322722        0.7656846692        0.5894698348
 C          6.4828877003        0.0704674214        0.5792074376
 H          6.3116249836       -0.7977136360        1.1950626616
 H          8.4822312017        0.4431807885        1.2362019575
 H          8.7799526342        2.4114260272       -0.2205673733
 H          6.9531633044        3.1460910367       -1.7063873473
 H          4.7990794196        1.8762128323       -1.7233065678
 H          3.5704038837        1.2042465577        1.3439344737
 H          1.9256377107        1.5141098079        2.9655906473
 H         -0.2846862875        0.8365129699        3.8280324431
 H         -1.6866456489       -0.7370581547        2.5413473051
 C         -1.1877170034       -1.8997008823        0.2068280844
 H         -1.4300632231       -2.7412508071        0.8724051354
 C         -0.5861453794       -2.4483570791       -1.0687616865
 C          0.3919459707       -3.5813308197       -1.0038407239
 C         -0.9879277808       -3.8116185634       -1.5413765912
 H         -1.1083253299       -3.9747936264       -2.6017842624
 H         -1.6896774998       -4.3615292023       -0.9310679087
 H          1.2253669155       -3.5812900154       -1.6906508535
 H          0.6325858503       -3.9771429503       -0.0283846140
 H         -0.4284819136       -1.6850421755       -1.8225302367
 O         -1.4836145689        0.5258525178       -1.3306281338
