  62
        -98.92864526
 C         -2.3223329230       -0.8598135820        0.2879676819
 C         -2.4935585424        0.5439098835        0.3967060613
 C         -3.7538436484        1.0997601960       -0.1171268362
 C         -4.6565105973        0.2668794373       -0.6658131289
 C         -6.0218607918        0.6563208753       -1.1570612101
 C         -6.9761828541        0.8455217426        0.0393999173
 C         -7.4698610314        2.2795708484        0.2314002971
 H         -8.2318495455        2.4962745595       -0.5201258928
 H         -7.9487272806        2.3322488460        1.2114444401
 C         -6.3995715241        3.3714658971        0.1406541015
 H         -6.8397320400        4.2830788355        0.5502665974
 H         -6.1733436319        3.5785007486       -0.9063193297
 C         -5.0849559227        3.0860219764        0.8784672334
 H         -5.2433321875        2.3714267662        1.6865329457
 H         -4.7446659678        4.0156266623        1.3394235214
 C         -3.9383362023        2.5891262891       -0.0222272269
 H         -4.0550721166        3.0070284192       -1.0261934783
 H         -2.9910693562        2.9619380941        0.3792367974
 H         -6.4613383310        0.5126641704        0.9431144781
 H         -7.8458034233        0.1981938972       -0.0827738577
 H         -6.3759374572       -0.1478968698       -1.8021087826
 H         -5.9548517791        1.5704491007       -1.7425890578
 O         -4.4540244229       -1.0703526204       -0.7657173412
 C         -3.2903610658       -1.6742534087       -0.3016229833
 O         -3.2663688119       -2.9046499830       -0.4796572439
 O         -1.6266793062        1.3011935871        0.9146991962
 C         -1.0290873603       -1.4310572272        0.8404844607
 C          0.0399597062       -1.5059154816       -0.2202639707
 C         -0.2129431068       -2.0757799762       -1.4643571592
 C          0.7853402485       -2.1406961757       -2.4189061611
 C          2.0476663049       -1.6398925140       -2.1543931543
 C          2.3134464540       -1.0741600438       -0.9124626124
 C          1.3085413558       -1.0097151848        0.0434834429
 H          1.5200216907       -0.5474113673        0.9958948362
 N          3.6035593320       -0.6079306511       -0.6080870450
 S          3.7907581901        0.7545265208        0.3720610639
 O          3.5481817456        0.3780889422        1.7415386250
 O          3.0087086601        1.8537721616       -0.1476241844
 C          5.5308040203        1.0628544847        0.1343455093
 C          5.9350389067        2.0241267130       -0.7725187388
 C          7.2913799193        2.2323854840       -0.9687348129
 C          8.2149711482        1.4779428974       -0.2609987418
 C          7.7939203995        0.5172616390        0.6467141581
 C          6.4395608982        0.3049690457        0.8486510032
 H          6.0653776348       -0.4229200709        1.5494330547
 H          8.5149982253       -0.0651321396        1.1972477083
 H          9.2696954833        1.6418806286       -0.4156756735
 H          7.6216663975        2.9807999693       -1.6709704314
 H          5.1809849390        2.5922645416       -1.2934738641
 H          4.1928536637       -0.5429763802       -1.4275403824
 H          2.8237906269       -1.6895525613       -2.9030237528
 H          0.5766312765       -2.5831324681       -3.3814249650
 H         -1.1961795739       -2.4709033546       -1.6704379960
 H         -0.6917814803       -0.6915264905        1.5855112544
 C         -1.2194996756       -2.7535060677        1.5719242916
 C         -0.7090939892       -4.0636674903        1.0602941609
 C         -0.0480255318       -3.4144554589        2.2365038352
 H         -0.1858666211       -3.8470357376        3.2158794816
 H          0.9234954973       -2.9677150988        2.0831830865
 H         -1.3248231681       -4.9348799306        1.2224479531
 H         -0.1824889548       -4.0732878418        0.1193846035
 H         -2.1629995804       -2.7839612868        2.1077479892
