  62
        -98.93612037
 C         -1.4535448492       -1.5696446301       -0.4080889421
 C         -1.4972722360       -0.1808140921       -0.6707938478
 C         -2.7475840274        0.5232132958       -0.3135890276
 C         -3.7793143910       -0.1775855035        0.1872968002
 C         -5.1459803851        0.3091034592        0.5978296530
 C         -5.8362857197        1.2872650769       -0.3654219229
 C         -5.9437692364        2.7083772180        0.1886317052
 H         -6.7683643909        3.2190718697       -0.3136114029
 H         -6.1941792895        2.6502773785        1.2499254214
 C         -4.6921588013        3.5662228410        0.0109150946
 H         -4.8425175981        4.4915854470        0.5719271262
 H         -4.5873530343        3.8382512490       -1.0416221897
 C         -3.3831165496        2.9217203022        0.4732839495
 H         -3.5289482604        2.3770011416        1.4053600431
 H         -2.6723870548        3.7233482166        0.6877740325
 C         -2.7385448356        2.0049285057       -0.5763024785
 H         -3.1818819702        2.1924218902       -1.5592737837
 H         -1.6781067423        2.2597797053       -0.6706468977
 H         -6.8467192584        0.9188283519       -0.5494271557
 H         -5.3148663444        1.2935867182       -1.3214568335
 H         -5.0742631708        0.7545255946        1.5929933796
 H         -5.7483610576       -0.5959335378        0.7046848538
 O         -3.6993028866       -1.5207026240        0.4109205166
 C         -2.5489228057       -2.2366052659        0.1466056650
 O         -2.6277239052       -3.4499144651        0.4272235473
 O         -0.5556284218        0.4690164016       -1.1952220338
 C         -0.2269303474       -2.4355399982       -0.6606470085
 C          0.7216988545       -2.3005341540        0.5077163760
 C          0.8137336962       -3.3197020491        1.4492318139
 C          1.6535714853       -3.1938299702        2.5408607794
 C          2.4107476371       -2.0501762934        2.7142268052
 C          2.3238237891       -1.0216867665        1.7805978355
 C          1.4894712630       -1.1566111021        0.6799336764
 H          1.4030896413       -0.3469865088       -0.0235987644
 N          3.1060613691        0.1275638614        1.9308424024
 S          2.6582535723        1.6300565236        1.3443314418
 O          3.4572576537        2.5510232504        2.1288993955
 O          1.2309798388        1.8302082532        1.4011001738
 C          3.2812122605        1.6286629900       -0.3231061860
 C          2.4275606506        1.6746977000       -1.4056218193
 C          2.9706211832        1.6609410123       -2.6822115958
 C          4.3446777369        1.6059953379       -2.8525951386
 C          5.1886143834        1.5663502645       -1.7523569255
 C          4.6539183876        1.5780087827       -0.4752861920
 H          5.2721342371        1.5587876233        0.4067495717
 H          6.2574436806        1.5248680041       -1.8873916429
 H          4.7592287327        1.5943741891       -3.8484651606
 H          2.3109349122        1.6891117985       -3.5350939311
 H          1.3607101939        1.6982835980       -1.2450982334
 H          3.6185935952        0.1916335538        2.7972669266
 H          3.0625265685       -1.9475353493        3.5686576837
 H          1.7146405315       -3.9906970460        3.2668402590
 H          0.2034228725       -4.2031792779        1.3286930520
 H         -0.5970213619       -3.4700068950       -0.6664225865
 C          0.4559263873       -2.1671282309       -1.9859842011
 C          1.3737003657       -3.2098025785       -2.5474862122
 C          0.0453212327       -2.9540226645       -3.1926603122
 H          0.0210772449       -2.4538130722       -4.1490459351
 H         -0.7338465531       -3.6923252862       -3.0677850080
 H          2.2660049530       -2.8862125090       -3.0606099345
 H          1.4949780170       -4.1235087201       -1.9852635608
 H          0.7183588265       -1.1297586377       -2.1398305659
