  62
        -98.94966594
 C         -1.4981263897       -1.0686650615        0.0403200400
 C         -2.5169191201       -0.6413573018        0.9222383896
 C         -3.0559464709        0.7020831078        0.6783167491
 C         -2.5428295911        1.4453792578       -0.3195935111
 C         -3.0255706918        2.8139176274       -0.7026052817
 C         -4.1261888315        2.7406946263       -1.7703722219
 C         -5.2470993310        1.7569666058       -1.4344963118
 H         -4.8421957104        0.7424905460       -1.4365617714
 H         -5.9815621309        1.8131179651       -2.2407066920
 C         -5.9413504515        2.0209141158       -0.0912342221
 H         -7.0212064914        1.9416871951       -0.2328393423
 H         -5.7315286122        3.0382793261        0.2408647976
 C         -5.5647396912        1.0388718464        1.0195494784
 H         -5.6829258905        0.0142237863        0.6583443487
 H         -6.2645778314        1.1770330363        1.8480022781
 C         -4.1483250414        1.1871082875        1.5898726586
 H         -4.0845714612        0.5660387378        2.4885650489
 H         -3.9732307821        2.2254435577        1.8804947483
 H         -3.6713943211        2.4332969463       -2.7147851417
 H         -4.5438008321        3.7403425260       -1.9033290124
 H         -3.3971307423        3.3222240475        0.1852615581
 H         -2.1773537921        3.3752337277       -1.0987702517
 O         -1.5491564307        1.0103520081       -1.1333070407
 C         -0.9941226999       -0.2467488815       -0.9668913301
 O         -0.0801169296       -0.5175999412       -1.7703268098
 H          0.4199394296       -0.5429693598        1.6079124403
 C          1.1031852302       -1.2619873795        1.1792796107
 C          0.6133876310       -2.3220643201        0.4270376910
 C          1.5218428316       -3.2315051997       -0.1013564885
 C          2.8815245215       -3.0660705388        0.0991084018
 C          3.3654663107       -1.9818518583        0.8079478915
 C          2.4642361000       -1.0721041686        1.3474731410
 N          2.8994382692        0.0735499219        2.0507341707
 S          2.6001011485        1.5402896014        1.2904121901
 O          3.2225899377        2.5369136821        2.1364960999
 O          1.1879322484        1.6948809605        1.0565854197
 C          3.5091527489        1.4123379614       -0.2393686097
 C          2.9537173196        0.7397876007       -1.3092553596
 C          3.7191656899        0.5671374708       -2.4533530093
 C          5.0131750296        1.0607426615       -2.5073667392
 C          5.5546161790        1.7351036222       -1.4228723093
 C          4.7992367986        1.9078400022       -0.2750060795
 H          5.1751272681        2.4265875227        0.5922484604
 H          6.5602394488        2.1212606428       -1.4669323392
 H          5.6016797999        0.9191440916       -3.4001459590
 H          3.2904216004        0.0418239602       -3.2916665592
 H          1.9422957398        0.3667098401       -1.2514607697
 H          3.8766740891        0.0386189425        2.3102055809
 H          4.4268272406       -1.8358350876        0.9416015517
 H          3.5737161520       -3.7806090186       -0.3190646878
 H          1.1639380623       -4.0696604801       -0.6766638383
 C         -0.8784172089       -2.4399450810        0.2327896807
 H         -1.3186322989       -2.8336105010        1.1617864107
 C         -1.2606168881       -3.3549840317       -0.9136061091
 C         -1.4429501373       -4.8255035317       -0.6871477986
 C         -2.6349449077       -3.9518446525       -0.9330318492
 H         -3.1503220375       -4.0309101131       -1.8784875493
 H         -3.2840133481       -3.7224313626       -0.1003784595
 H         -1.2906394973       -5.2005692712        0.3135777415
 H         -1.1423463967       -5.5085959518       -1.4672555883
 H         -0.8439100381       -3.0278103717       -1.8598295891
 O         -2.9506381799       -1.3499327117        1.8726490598
