  62
        -98.94326957
 C         -1.4943144078       -1.4504333428       -0.9212176818
 C         -2.6774317345       -1.1870485444       -0.1845164643
 C         -3.3446072728        0.0934811644       -0.4440404843
 C         -2.8203470111        0.9318425508       -1.3555736780
 C         -3.3757652285        2.2820230873       -1.7040943148
 C         -2.7291302882        3.3881272332       -0.8600264472
 C         -2.7056155525        3.0897525645        0.6391954869
 H         -2.0228499511        2.2562921589        0.8242430367
 H         -2.2712164724        3.9615067918        1.1349251050
 C         -4.0803760628        2.7865715516        1.2516439438
 H         -4.1641537881        3.3262532191        2.1974921823
 H         -4.8678754989        3.1590097755        0.5949008807
 C         -4.3335529206        1.3094695734        1.5604755910
 H         -3.4857213554        0.9054399997        2.1206348428
 H         -5.2148572826        1.2434607447        2.2045633442
 C         -4.5830570974        0.4050252426        0.3468686544
 H         -4.9525943510       -0.5559404412        0.7169579732
 H         -5.3511536238        0.8471844689       -0.2911676905
 H         -1.6957647580        3.5194666475       -1.1896622178
 H         -3.2681380904        4.3205548437       -1.0410112532
 H         -3.1703148555        2.4759165024       -2.7585501312
 H         -4.4531119078        2.2753006696       -1.5491071281
 O         -1.6941108706        0.6466213092       -2.0503150101
 C         -0.9729230694       -0.5202399705       -1.8195534665
 O          0.0748323917       -0.5894532151       -2.4886743818
 O         -3.1583071743       -2.0011094403        0.6509342728
 C         -0.7763020972       -2.7484538244       -0.5883650494
 C          0.0424656348       -2.5414828219        0.6617827214
 C         -0.0229732483       -3.4247755054        1.7313319128
 C          0.6825985298       -3.1665576907        2.8941188056
 C          1.4361978606       -2.0141605414        3.0199499815
 C          1.5104917872       -1.1240389849        1.9521176490
 C          0.8446123409       -1.4141958057        0.7724590660
 H          0.9071504035       -0.7284950108       -0.0553384853
 N          2.2567422258        0.0558308088        2.0553109011
 S          1.8324944926        1.4813175705        1.2731620715
 O          2.1765558968        2.5222470541        2.2214348389
 O          0.4647104986        1.4626215601        0.8181018137
 C          2.9930227526        1.5544042402       -0.0763041945
 C          2.6381203676        1.1705751524       -1.3528227895
 C          3.5955709203        1.2199855745       -2.3557087246
 C          4.8814638943        1.6492958487       -2.0700618622
 C          5.2220062655        2.0358081001       -0.7820209664
 C          4.2718127045        1.9875424626        0.2234923995
 H          4.4880197996        2.2921016459        1.2340949147
 H          6.2217676464        2.3730410876       -0.5605770042
 H          5.6197085114        1.6844683291       -2.8556889893
 H          3.3203760189        0.9163119281       -3.3531662156
 H          1.6349849369        0.8347898458       -1.5670566711
 H          2.6298557780        0.2404289272        2.9745834216
 H          1.9571238091       -1.7957808936        3.9398685434
 H          0.6249670370       -3.8576202299        3.7214612140
 H         -0.6501341398       -4.3011081458        1.6589880337
 H         -1.5768293666       -3.4639879458       -0.3383889935
 C          0.0206146609       -3.3395241066       -1.7395892130
 C          1.5152617627       -3.3081093653       -1.8046370241
 C          0.8080074408       -4.5997700435       -1.5321752227
 H          0.7881830716       -5.3539423959       -2.3040661393
 H          0.8592373585       -4.9935097935       -0.5282583068
 H          1.9683254610       -3.1531613323       -2.7715182272
 H          2.0506983901       -2.8374491631       -0.9948042323
 H         -0.5022022502       -3.2408351084       -2.6850844353
