  62
        -98.94018446
 C         -1.4397085205       -1.6983063999       -0.0362573802
 C         -1.6093138004       -0.6170442899       -0.9348616702
 C         -2.8909977403        0.1096547802       -0.8507322803
 C         -3.7941092304       -0.2352082096        0.0813992597
 C         -5.1673084403        0.3388896505        0.3273703296
 C         -5.3292487401        1.8620966105        0.2424238795
 C         -4.1096778701        2.6731488404        0.7047756396
 H         -4.4336468900        3.4197687705        1.4325882895
 H         -3.3890120102        2.0239370104        1.2057904796
 C         -3.4112250600        3.4066309703       -0.4424647204
 H         -4.1713346599        3.8512958104       -1.0896925305
 H         -2.8144308099        4.2218586503       -0.0258575804
 C         -2.4670375000        2.5505982602       -1.2857496804
 H         -1.5752293401        2.3082466201       -0.7011942203
 H         -2.1340279899        3.1564063601       -2.1328498004
 C         -3.0650140801        1.2403499302       -1.8239416204
 H         -2.5009196601        0.9590985802       -2.7175506303
 H         -4.1089244301        1.3711582203       -2.1008319304
 H         -6.1924946601        2.1218076306        0.8576415295
 H         -5.5757404301        2.1464929105       -0.7796486505
 H         -5.8622465003       -0.1337661194       -0.3732212804
 H         -5.4401771604       -0.0024524794        1.3290246396
 O         -3.5711486605       -1.2527893096        0.9616341597
 C         -2.4116292906       -2.0040378098        0.9188183098
 O         -2.3626634407       -2.9159717497        1.7704628098
 O         -0.7583114803       -0.2645351700       -1.7919553302
 C         -0.2078548706       -2.5849145800       -0.0003384601
 C          0.8777825894       -2.0404182101        0.9012249299
 C          1.7551285593       -2.9113617402        1.5398364100
 C          2.7629581093       -2.4259924502        2.3516201900
 C          2.9239350395       -1.0641189903        2.5352236100
 C          2.0515944596       -0.1846795602        1.9051563299
 C          1.0375421896       -0.6780357901        1.0945904599
 H          0.3593414196        0.0177347200        0.6280550198
 N          2.1737757097        1.1995136298        2.0915425299
 S          1.9178487999        2.2487161498        0.8113777798
 O          2.5373997700        3.4840366297        1.2451043698
 O          0.5137532399        2.3251719199        0.5044149898
 C          2.8630878999        1.5492916797       -0.5285556201
 C          2.2517298598        0.8534306097       -1.5501405201
 C          3.0481143598        0.2773194696       -2.5294644401
 C          4.4264372498        0.4030773394       -2.4716256600
 C          5.0240835998        1.1117317594       -1.4396687300
 C          4.2369722799        1.6879417195       -0.4575751601
 H          4.6595931499        2.2583941995        0.3537535299
 H          6.0965712599        1.2135240393       -1.3980107000
 H          5.0372734798       -0.0510281106       -3.2359420900
 H          2.5773167498       -0.2697565704       -3.3310708601
 H          1.1770741098        0.7589203598       -1.5778528402
 H          2.9706589997        1.4815629797        2.6432734699
 H          3.7080622395       -0.6824418603        3.1709500100
 H          3.4318896592       -3.1129097803        2.8468728401
 H          1.6328556592       -3.9754591202        1.4086253200
 H         -0.5435140607       -3.5383528600        0.4330023099
 C          0.3761885594       -2.8634958101       -1.3736247201
 C          1.0176279393       -4.1860280602       -1.6611881400
 C         -0.3038415306       -3.8434390701       -2.2796655101
 H         -0.3471576506       -3.6226485101       -3.3353170001
 H         -1.1873362007       -4.3388411900       -1.9029255101
 H          1.8921404593       -4.2046001803       -2.2928716800
 H          1.0246698992       -4.9282656702       -0.8777627000
 H          0.8086433595       -1.9851587402       -1.8338078901
