  62
        -98.93925222
 C         -2.8653143542       -0.7584480651        0.4878071834
 C         -2.5204863566       -0.1275822544       -0.7344289615
 C         -2.8122872979        1.3104001261       -0.8124281492
 C         -3.4289727183        1.9313165006        0.2083816521
 C         -3.7820202692        3.3920583785        0.2748343284
 C         -2.6343290541        4.2770301354        0.7819425327
 C         -1.4718199804        4.4595761053       -0.1956465000
 H         -1.8568362618        4.8016766538       -1.1567868634
 H         -0.8368341629        5.2530285435        0.2030516155
 C         -0.6163330057        3.2015208032       -0.4042136087
 H         -0.8143793073        2.4859071924        0.3982428613
 H          0.4461478460        3.4480068013       -0.3397924267
 C         -0.8337930891        2.5048799436       -1.7474234950
 H         -0.5256063556        3.1697415877       -2.5576310297
 H         -0.1862314578        1.6226280020       -1.7792007643
 C         -2.2817072558        2.0581106858       -1.9971948291
 H         -2.9076739017        2.9211272722       -2.2223671054
 H         -2.2894788778        1.3817438641       -2.8551982878
 H         -3.0531902648        5.2613223481        1.0030492415
 H         -2.2578676271        3.8573370083        1.7178530929
 H         -4.6184624668        3.4813282286        0.9712958541
 H         -4.1055155001        3.7380567887       -0.7066726333
 O         -3.8125559310        1.2735796567        1.3350774264
 C         -3.4787623174       -0.0592082363        1.5292406978
 O         -3.7770214067       -0.5004062633        2.6572738510
 O         -1.9833106861       -0.7142951505       -1.7081558782
 C         -2.4570277894       -2.1944621211        0.7760139118
 C         -1.0348991291       -2.3907220905        0.3054542015
 C         -0.6362696589       -3.3824561295       -0.5794784122
 C          0.6774808548       -3.4468491103       -1.0107525600
 C          1.6184439093       -2.5342542471       -0.5713832976
 C          1.2335155823       -1.5432881208        0.3218260518
 C         -0.0789519223       -1.4914297672        0.7627654589
 H         -0.3801579556       -0.7092374794        1.4514408090
 N          2.1793340704       -0.6064309956        0.7902737541
 S          2.9548769210        0.4125879655       -0.3085565953
 O          2.5432660051        1.7718126157       -0.0304348765
 O          2.7626700704       -0.0632198484       -1.6554636856
 C          4.6688750813        0.2264350653        0.1524440148
 C          5.2022145811       -1.0449481231        0.2304632935
 C          6.5360126863       -1.1943329510        0.5746013430
 C          7.3126460269       -0.0749536103        0.8342310120
 C          6.7630614932        1.1950275155        0.7552362369
 C          5.4289178289        1.3497698044        0.4112324946
 H          4.9592886108        2.3175287669        0.3416119476
 H          7.3667233883        2.0646357247        0.9597394248
 H          8.3506694157       -0.1938788024        1.1018823262
 H          6.9641356716       -2.1816773244        0.6403888431
 H          4.5683320600       -1.8925811446        0.0296748627
 H          1.8096207380       -0.0310324820        1.5343424351
 H          2.6293158415       -2.5601706572       -0.9434695146
 H          0.9701315807       -4.2135258607       -1.7122076070
 H         -1.3600250434       -4.0829034443       -0.9623165155
 H         -2.4659020491       -2.2780142850        1.8759383299
 C         -3.4226686244       -3.2472205523        0.2551604958
 C         -4.8743707004       -2.9299559529        0.0589242001
 C         -3.9969566438       -3.1881026425       -1.1270768461
 H         -4.1281492691       -4.1143108962       -1.6673931144
 H         -3.7092746476       -2.3558666572       -1.7495612501
 H         -5.6030623938       -3.6772793781        0.3351084043
 H         -5.1956726530       -1.9161642855        0.2495215109
 H         -3.1984528434       -4.2333611204        0.6499242315
