  62
        -98.93838720
 C          2.6275196429        0.2537813905        0.0145233449
 C          2.2667627779        1.2437894258       -0.9290082452
 C          1.6281261442        2.4484590377       -0.3870957051
 C          1.4539156685        2.5662683698        0.9415214923
 C          0.7952267613        3.7155780188        1.6546903446
 C         -0.7172704506        3.8554417583        1.3884192231
 C         -1.0676202992        4.8690816087        0.2917131941
 H         -1.9513010273        5.4304406755        0.6018494612
 H         -0.2522918356        5.5888514787        0.2056267246
 C         -1.3751711688        4.2816236953       -1.0894332811
 H         -2.3911627050        3.8798124314       -1.0884428738
 H         -1.3417095065        5.0972773630       -1.8156924674
 C         -0.4507201621        3.1591933853       -1.5635000104
 H         -0.6509957819        2.9747264925       -2.6218105441
 H         -0.7052826959        2.2307459937       -1.0441687141
 C          1.0545337568        3.4313012733       -1.3657498761
 H          1.5844765034        3.2824682275       -2.3090540151
 H          1.2215096294        4.4542534904       -1.0314355177
 H         -1.1297730991        2.8735500142        1.1513313579
 H         -1.1782986705        4.1859692273        2.3206105683
 H          0.9585299242        3.5350854527        2.7188311872
 H          1.3047598505        4.6436848201        1.3869776607
 O          1.8861051502        1.6246476416        1.8226257824
 C          2.4171078240        0.4226251066        1.3828162311
 O          2.6718955488       -0.3893020296        2.2937968192
 O          2.4556331975        1.1164151640       -2.1709855419
 C          3.0912470507       -1.1015286026       -0.4840481055
 C          2.0576042183       -2.1439975829       -0.1208282739
 C          2.3767118818       -3.4532495963        0.2150096724
 C          1.3759563929       -4.3554239202        0.5363657146
 C          0.0469315018       -3.9753899348        0.5429448235
 C         -0.2829109441       -2.6641013894        0.2127904525
 C          0.7181029078       -1.7763912749       -0.1394864779
 H          0.4465325532       -0.7690562723       -0.4183787534
 N         -1.6130553449       -2.2204513959        0.2775688738
 S         -2.0753187471       -0.7399066555       -0.3689050699
 O         -1.7841256342       -0.6872733101       -1.7852724385
 O         -1.5317773537        0.3204726652        0.4422659738
 C         -3.8370013111       -0.8482880634       -0.1216035167
 C         -4.6267976734       -1.3733307135       -1.1272622923
 C         -5.9918350861       -1.4893490219       -0.9172444347
 C         -6.5412940033       -1.0817641069        0.2891512876
 C         -5.7367794886       -0.5538861497        1.2880029493
 C         -4.3709090853       -0.4359044125        1.0841711569
 H         -3.7061459741       -0.0266902295        1.8273903989
 H         -6.1671841078       -0.2342674009        2.2232549689
 H         -7.6037097042       -1.1729661823        0.4507169942
 H         -6.6200219645       -1.8957566570       -1.6933742221
 H         -4.1568447537       -1.6650556590       -2.0527617476
 H         -2.3022310934       -2.9459975550        0.1455522616
 H         -0.7279723315       -4.6765557712        0.8111320480
 H          1.6376590668       -5.3706276881        0.7935626802
 H          3.4081928180       -3.7656768150        0.2295335311
 H          3.1188149060       -1.0167606814       -1.5818587036
 C          4.4810099508       -1.4359393569        0.0149915355
 C          5.4096952561       -2.2620392038       -0.8228815023
 C          5.6606400978       -0.7951574358       -0.6510234570
 H          6.4901178571       -0.4786771498       -0.0369761583
 H          5.4597025156       -0.1392385557       -1.4857145926
 H          6.0726581716       -2.9545321065       -0.3264903443
 H          5.0493857074       -2.6026932856       -1.7819750471
 H          4.5159064122       -1.5538011724        1.0919416496
