  62
        -98.94392692
 C          1.8325956945        1.1286177692        0.2013670896
 C          2.1873169569        0.1038956129       -0.7084821171
 C          3.6221684548       -0.0135021296       -1.0091537848
 C          4.4886834269        0.8456725440       -0.4420161672
 C          5.9787738800        0.8013514816       -0.6155310798
 C          6.6377205040       -0.0589532123        0.4719352574
 C          5.9828728863       -1.4277808843        0.6578797290
 H          6.5478535007       -1.9568769928        1.4283761486
 H          4.9688706163       -1.2900833936        1.0403844897
 C          5.9292627243       -2.2839989472       -0.6150603589
 H          6.6421251256       -1.9040256936       -1.3477667393
 H          6.2330061637       -3.3027778806       -0.3652373510
 C          4.5443567397       -2.3780773581       -1.2585311258
 H          4.5720472954       -3.1702920394       -2.0116270728
 H          3.8072789580       -2.6698352419       -0.5057056115
 C          4.0429480466       -1.1051193807       -1.9522545836
 H          4.8004129242       -0.7431054331       -2.6505748939
 H          3.1471681839       -1.3692854899       -2.5224173247
 H          6.5807142863        0.4793246306        1.4208282915
 H          7.6911465899       -0.1892942509        0.2178479419
 H          6.2130957982        0.4032011428       -1.6007548816
 H          6.3639233730        1.8198311527       -0.5435885288
 O          4.1052813233        1.8338986820        0.4060715588
 C          2.7750433355        1.9923154932        0.7590406002
 O          2.5624552355        2.9196630379        1.5660242828
 H         -2.0246634532        0.0960244012        0.0104539964
 C         -1.4392867768       -0.4414272014        0.7371951270
 C         -0.1980837807        0.0365439406        1.1283455449
 C          0.5277946586       -0.6858437495        2.0722128978
 C          0.0383704266       -1.8713698908        2.5836560934
 C         -1.1883133112       -2.3597796687        2.1697235013
 C         -1.9310234595       -1.6375729309        1.2434921083
 N         -3.1999135025       -2.0841082719        0.8581408725
 S         -3.8992378327       -1.6972127335       -0.6057045785
 O         -5.0067095141       -2.6241594726       -0.7170648368
 O         -2.9557525528       -1.7117051631       -1.6979807442
 C         -4.5509423298       -0.0562877146       -0.3711098912
 C         -4.5675375844        0.8112444853       -1.4451153875
 C         -5.1203135153        2.0722065627       -1.2825879801
 C         -5.6434540019        2.4425551013       -0.0534833911
 C         -5.6198172116        1.5593311794        1.0150344117
 C         -5.0738017721        0.2954802193        0.8575256273
 H         -5.0401989392       -0.4143252098        1.6668770431
 H         -6.0259455439        1.8514379835        1.9700367315
 H         -6.0697199219        3.4253493076        0.0712666761
 H         -5.1396207405        2.7595667479       -2.1136082807
 H         -4.1375940990        0.4864872079       -2.3797211002
 H         -3.4560314943       -3.0057533252        1.1783175713
 H         -1.5677551782       -3.2917682342        2.5599134274
 H          0.6184062899       -2.4253293903        3.3066105317
 H          1.4903545490       -0.3080612444        2.3904723971
 C          0.3788299054        1.3236268470        0.5920447280
 H          0.3810137146        2.0633740026        1.4064623033
 C         -0.4011788178        1.8927137633       -0.5751976678
 C         -1.5684012701        2.7998865754       -0.3301492924
 C         -0.2872356607        3.3567213525       -0.8722644523
 H         -0.2546600419        3.6720353733       -1.9043268087
 H          0.3371184273        3.9453393280       -0.2157507838
 H         -2.4201062924        2.7334365707       -0.9899525583
 H         -1.8225159869        3.0201630033        0.6955265768
 H         -0.4471903517        1.2109507699       -1.4178219549
 O          1.3531790499       -0.6755046637       -1.2396482845
