  62
        -98.94648030
 C         -1.2038462719       -1.1356022608        0.5646279658
 C         -1.6723082372       -0.5802628891       -0.6514653306
 C         -2.4742114615        0.6441762743       -0.5191710334
 C         -2.6120294881        1.2298810971        0.6830569835
 C         -3.3752855386        2.4939043924        0.9720691304
 C         -4.8799791147        2.2752779404        1.1841199326
 C         -5.6744822912        1.9413318650       -0.0792530579
 H         -6.7323386949        2.0289105368        0.1765283933
 H         -5.4641664140        2.6859340841       -0.8475833638
 C         -5.4171137577        0.5342479536       -0.6368840265
 H         -4.9437007493       -0.0811566783        0.1316299787
 H         -6.3703150657        0.0604540229       -0.8821732928
 C         -4.5557077203        0.4999356659       -1.8995837723
 H         -4.4043772280       -0.5448679075       -2.1820696360
 H         -5.0846057421        0.9958401850       -2.7164929256
 C         -3.1772104405        1.1552126605       -1.7404690443
 H         -3.2862322912        2.2386419647       -1.6981723940
 H         -2.5692823343        0.8911978561       -2.6088228632
 H         -5.0171557227        1.4804044470        1.9210193504
 H         -5.2864417393        3.1955895349        1.6100330309
 H         -2.9578882046        2.9077756053        1.8926373488
 H         -3.2224758346        3.2118477182        0.1658981071
 O         -2.0310006656        0.7332171078        1.8081356634
 C         -1.3504727148       -0.4711077474        1.7830044434
 O         -0.9129303903       -0.8348220473        2.8954975611
 O         -1.4509170366       -1.0738602549       -1.7853374583
 C         -0.4447929594       -2.4542818595        0.5845349761
 C          0.9353937987       -2.2109808397        0.0253831561
 C          1.3772058197       -2.6926220629       -1.1986551852
 C          2.6421503614       -2.3689260101       -1.6618969012
 C          3.4886673511       -1.5665299037       -0.9187194013
 C          3.0543081916       -1.0838351561        0.3093345730
 C          1.7896512540       -1.4063957459        0.7710191074
 H          1.4470763366       -1.0219911584        1.7237642615
 N          3.9009985135       -0.2405331901        1.0664339607
 S          4.2249177158        1.2364051834        0.3421690389
 O          5.1512389116        1.0309921905       -0.7414645716
 O          4.6707547944        2.1064611827        1.4065393609
 C          2.6497620742        1.7795826827       -0.2938798578
 C          2.3218971243        1.5236234269       -1.6096790367
 C          1.0703501263        1.8972263628       -2.0712796286
 C          0.1741582358        2.5146477256       -1.2137266284
 C          0.5153744717        2.7577558770        0.1076420302
 C          1.7631697649        2.3820351599        0.5761462356
 H          2.0664632974        2.5602072251        1.5959157993
 H         -0.1884827645        3.2308084807        0.7739637041
 H         -0.7975200792        2.8062932927       -1.5774673876
 H          0.7941326921        1.7003397237       -3.0943928214
 H          3.0494241559        1.0475037773       -2.2461828030
 H          3.5485525506       -0.0778057925        1.9999376635
 H          4.4699599830       -1.2932244795       -1.2716387881
 H          2.9722346070       -2.7463540059       -2.6176778583
 H          0.7268185159       -3.3084506172       -1.7969671787
 H         -0.3307697097       -2.7182809025        1.6454399747
 C         -1.2107223939       -3.5577713946       -0.1110374431
 C         -0.8513134010       -4.9863485530        0.1620837736
 C         -2.1344829880       -4.4217291256        0.6915475041
 H         -3.0633012135       -4.7397374604        0.2421834805
 H         -2.2085427392       -4.2267413574        1.7518559861
 H         -0.8993557950       -5.6957903013       -0.6497752675
 H         -0.0525701476       -5.1745137918        0.8637202613
 H         -1.5248731175       -3.2938449601       -1.1127999646
