  62
        -98.94314000
 C          2.5863930397       -0.0801441263       -0.3723335482
 C          2.6886825660       -1.1013356258        0.6083881622
 C          2.1045018101       -2.4000537859        0.2672695423
 C          1.5180240836       -2.5668071232       -0.9312801967
 C          0.8264671532       -3.8123312436       -1.4144136311
 C         -0.6235894428       -3.9231538910       -0.9221102539
 C         -0.7810776154       -4.3180425514        0.5473982715
 H         -1.8231741706       -4.6117991484        0.6884099785
 H         -0.1635031821       -5.1923875490        0.7574745852
 C         -0.4494072877       -3.1958262347        1.5411007667
 H         -1.2177731584       -3.1622160240        2.3177396940
 H         -0.4763145427       -2.2331886905        1.0244829459
 C          0.8954163900       -3.3482131283        2.2526337596
 H          1.0478207746       -2.4678822835        2.8823538878
 H          0.8697925683       -4.2282853661        2.9001634898
 C          2.1034594588       -3.4713885065        1.3160912814
 H          3.0111700138       -3.3499570721        1.9128985408
 H          2.1199801054       -4.4562120170        0.8494747500
 H         -1.1199589040       -2.9639284959       -1.0936086840
 H         -1.1223730336       -4.6760363451       -1.5374700476
 H          1.3896729529       -4.6943520093       -1.1074968069
 H          0.8201705564       -3.7630378423       -2.5054810134
 O          1.4989960636       -1.5895205856       -1.8727651650
 C          1.9848157912       -0.3152493753       -1.6092693114
 O          1.8383228539        0.4725656598       -2.5663673249
 O          3.2456971557       -0.9272885595        1.7267385282
 C          3.0298516638        1.3043056078        0.0717023259
 C          1.8665721036        1.9511036318        0.7903367925
 C          2.0103595251        2.5030218739        2.0573019951
 C          0.9114774459        3.0013134102        2.7356234764
 C         -0.3530637452        2.9233437407        2.1811007064
 C         -0.5042308504        2.3817080575        0.9090548341
 C          0.6069748331        1.9388746518        0.2092654425
 H          0.4690479016        1.5354227383       -0.7828206117
 N         -1.7669453616        2.2553158128        0.3104097173
 S         -2.0493703728        0.8564761968       -0.6041791744
 O         -1.3068552415       -0.2557118875       -0.0608352043
 O         -1.8362817365        1.1710517098       -1.9948544460
 C         -3.7948278422        0.6213716788       -0.3177752118
 C         -4.6932874479        1.4283889879       -0.9906882266
 C         -6.0484084129        1.2678498141       -0.7494044368
 C         -6.4802383032        0.3083986477        0.1547517858
 C         -5.5670861077       -0.4954653725        0.8201596816
 C         -4.2097916288       -0.3383737717        0.5853456088
 H         -3.4619490373       -0.9429665860        1.0734371640
 H         -5.9051096013       -1.2432136257        1.5192575579
 H         -7.5355275550        0.1843529322        0.3394561175
 H         -6.7612657298        1.8889696975       -1.2672500294
 H         -4.3103629052        2.1508886880       -1.6926067456
 H         -2.5308463030        2.4578742418        0.9406399922
 H         -1.2166931496        3.2719208090        2.7267337644
 H          1.0365104681        3.4257965217        3.7201522861
 H          2.9853453467        2.5142165665        2.5211820424
 H          3.8271746695        1.1399355061        0.8104401757
 C          3.5651296144        2.2055247689       -1.0196961710
 C          4.5020114593        3.3154489678       -0.6498276252
 C          5.0118881873        2.1221025321       -1.3992480691
 H          5.2746533947        2.2333258752       -2.4401944752
 H          5.6257185913        1.4093621359       -0.8680140064
 H          4.4165629811        4.2543059361       -1.1747032162
 H          4.7771319940        3.4144834332        0.3891508289
 H          2.8532652200        2.3889543320       -1.8138862810
