  62
        -98.93828401
 C          2.2082497659        1.0532409615        0.5582189960
 C          2.3257925950        0.1709609311       -0.5416685484
 C          3.1090060309       -1.0562873981       -0.3109405295
 C          3.6322461192       -1.2886312578        0.9049340459
 C          4.4266879843       -2.4818159443        1.3748992326
 C          5.4993833516       -3.0372472690        0.4282018450
 C          6.2010058544       -1.9876077421       -0.4460131488
 H          5.9519571546       -0.9837078299       -0.0981120702
 H          7.2812291102       -2.1086854386       -0.3468416927
 C          5.8485897006       -2.1150010498       -1.9300216849
 H          5.8573914778       -3.1725917901       -2.2025204126
 H          6.6238205608       -1.6191333339       -2.5189504961
 C          4.5090999757       -1.5045092778       -2.3408512196
 H          4.3262278246       -1.7647285967       -3.3861261277
 H          4.5664588111       -0.4140271901       -2.2874988142
 C          3.2963659066       -1.9465558236       -1.5054443415
 H          2.3987154963       -1.8195032686       -2.1175840046
 H          3.3729593776       -2.9932671541       -1.2204430341
 H          6.2373549952       -3.5439089463        1.0524321101
 H          5.0585176360       -3.7976478661       -0.2149462991
 H          4.8939889046       -2.1605916641        2.3090364784
 H          3.7226016519       -3.2808933773        1.6259932499
 O          3.4628160697       -0.4249088342        1.9472096299
 C          2.7547198567        0.7564342927        1.8044330293
 O          2.6767561441        1.4396207031        2.8464901244
 H         -0.1629732188        0.5501987529        1.5386855665
 C         -0.6750503176        1.0601512357        0.7306455863
 C          0.0021381538        2.0426428540        0.0184017231
 C         -0.6656710177        2.6895751703       -1.0124914075
 C         -1.9687443619        2.3441116156       -1.3278453824
 C         -2.6348738054        1.3595088369       -0.6221123705
 C         -1.9786828837        0.7109368448        0.4161528381
 N         -2.6516214159       -0.2822206239        1.1519780970
 S         -3.3728675378       -1.5363001602        0.2957285447
 O         -3.4276528256       -2.6431098560        1.2267466388
 O         -2.7000922072       -1.7839202847       -0.9582587756
 C         -5.0270266220       -0.9469514332        0.0005122659
 C         -5.7893364912       -0.5759869523        1.0909454653
 C         -7.0803326539       -0.1189610945        0.8800512385
 C         -7.5852806956       -0.0442915107       -0.4097144263
 C         -6.8085465348       -0.4242859401       -1.4934915890
 C         -5.5155953424       -0.8812689476       -1.2895953512
 H         -4.8721506066       -1.1819486854       -2.1012127616
 H         -7.2027532611       -0.3659382695       -2.4953190242
 H         -8.5902521750        0.3123650052       -0.5711928421
 H         -7.6873495527        0.1771028198        1.7203527147
 H         -5.3599984412       -0.6534875139        2.0758595272
 H         -2.1043819934       -0.6541130153        1.9152652721
 H         -3.6469539274        1.0838304182       -0.8692825650
 H         -2.4726962709        2.8492743038       -2.1376070140
 H         -0.1627013677        3.4564887345       -1.5779429178
 C          1.4279253327        2.3472821803        0.4114968509
 H          1.4145372440        2.8086171819        1.4100717712
 C          2.1368008793        3.2799926589       -0.5480773031
 C          1.9998119183        4.7644687279       -0.3981130559
 C          3.2912099150        4.0915680136       -0.0448796064
 H          4.1434525991        4.2332368841       -0.6924787925
 H          3.5496997647        3.9901939979        0.9994582640
 H          1.3833439649        5.1304618957        0.4088353640
 H          1.9684685223        5.3723784055       -1.2896121384
 H          2.2128725252        2.8678349234       -1.5477119775
 O          1.7982295088        0.3898358216       -1.6625197969
