  62
        -98.94491263
 C          1.9727237687        0.8466681581        0.0659520928
 C          2.2465051371       -0.1253788248        1.0554260902
 C          2.3023515379       -1.5171723386        0.5924591520
 C          2.0635256165       -1.7874375508       -0.7041047043
 C          2.1146753232       -3.1569648019       -1.3167062386
 C          3.5167181750       -3.4790484635       -1.8526916438
 C          4.6380539606       -3.2001043559       -0.8519702258
 H          5.5775001123       -3.4908936677       -1.3266693631
 H          4.6888765520       -2.1248267331       -0.6667736178
 C          4.4910399793       -3.9372313660        0.4863640851
 H          5.4584300777       -4.3630766265        0.7603615175
 H          3.7900631326       -4.7655041622        0.3780390467
 C          4.0489448915       -3.0508862808        1.6521922253
 H          4.6919517200       -2.1689742010        1.7065594942
 H          4.1853353484       -3.6139469827        2.5792413418
 C          2.5894814744       -2.5791985817        1.6166476213
 H          1.9258130391       -3.4355175090        1.4766589521
 H          2.3597804399       -2.1267943319        2.5861675724
 H          3.5402717727       -4.5301092113       -2.1459144936
 H          3.6929474491       -2.8721968587       -2.7436722311
 H          1.8197496187       -3.8916014757       -0.5695889808
 H          1.3996128411       -3.1862959407       -2.1408037108
 O          1.7941664970       -0.8282661045       -1.6256151969
 C          1.7238032161        0.5071170255       -1.2641715537
 O          1.4539847130        1.2814797613       -2.2028741668
 O          2.4312390286        0.1594118278        2.2714862229
 C          1.8294442241        2.3005548083        0.4780982693
 C          0.4301814045        2.7693343020        0.1595484770
 C          0.1427572303        4.0013236760       -0.4132578086
 C         -1.1639504303        4.3417618396       -0.7192729711
 C         -2.2027853146        3.4624197798       -0.4774515106
 C         -1.9269648827        2.2351312954        0.1158290358
 C         -0.6235303466        1.9117988187        0.4500215393
 H         -0.4231997005        0.9546569763        0.9108255226
 N         -2.9545455746        1.3163452261        0.3976694321
 S         -2.5939991359       -0.3291174100        0.2546696005
 O         -1.9888116120       -0.7785711555        1.4845676104
 O         -1.8523232389       -0.5832832443       -0.9598711517
 C         -4.2411767072       -1.0020362847        0.1262026769
 C         -4.7558139335       -1.3026153858       -1.1206674636
 C         -6.0482293716       -1.7955994173       -1.2116341455
 C         -6.8007277442       -1.9754699619       -0.0607568132
 C         -6.2703753808       -1.6697426489        1.1839749880
 C         -4.9785975514       -1.1775791449        1.2820518405
 H         -4.5192643021       -0.9346894381        2.2259624483
 H         -6.8571717183       -1.8136670879        2.0767256731
 H         -7.8059151196       -2.3592260438       -0.1344905939
 H         -6.4612829377       -2.0370129686       -2.1777207625
 H         -4.1292602177       -1.1534999140       -1.9856930737
 H         -3.8200733127        1.5450091527       -0.0730071547
 H         -3.2167965280        3.7188992806       -0.7440091133
 H         -1.3731631107        5.2990123447       -1.1722478149
 H          0.9428159178        4.6886003348       -0.6346898014
 H          1.9579790493        2.3105651697        1.5713931593
 C          2.9120033906        3.1519041200       -0.1512026964
 C          3.4114211754        4.3808810756        0.5465891026
 C          4.2767787882        3.1604363295        0.4674955147
 H          5.1377733995        3.1764178407       -0.1836551662
 H          4.4166184184        2.5712943377        1.3622303649
 H          3.6826972173        5.2380516447       -0.0509298059
 H          2.9710144275        4.6271315788        1.5008909938
 H          2.8519546063        3.1618805896       -1.2338064760
