  62
        -98.94296030
 C         -1.9780087409       -1.4363670042        0.2760141314
 C         -2.0640141251       -0.3353194110        1.1683210786
 C         -3.1233771667        0.6410555650        0.8994496013
 C         -3.9538886798        0.4487127476       -0.1413780406
 C         -5.1283053091        1.3136071960       -0.5114558148
 C         -4.7665049866        2.5414415236       -1.3575079158
 C         -4.0345776694        3.6532851486       -0.6056054377
 H         -4.5922915433        3.9087003417        0.2959230417
 H         -4.0400367092        4.5335538877       -1.2515139850
 C         -2.5819493584        3.3175741056       -0.2401634060
 H         -1.9442925642        4.1670229327       -0.4929793592
 H         -2.2409619216        2.4704163463       -0.8394547617
 C         -2.3523884866        3.0007295365        1.2377551663
 H         -2.5486463412        3.8914597749        1.8387166253
 H         -1.3029458666        2.7252470188        1.3691040933
 C         -3.2122398462        1.8512310603        1.7792262226
 H         -4.2490977702        2.1713562667        1.8821270906
 H         -2.8322588343        1.5730274014        2.7653000959
 H         -5.6993843552        2.9506866687       -1.7522713664
 H         -4.1615032879        2.2150058404       -2.2064196423
 H         -5.8058231960        0.6834244690       -1.0917729232
 H         -5.6439016918        1.6342456413        0.3945067972
 O         -3.8274802865       -0.6061717414       -0.9863122661
 C         -2.8235286215       -1.5529378377       -0.8278540445
 O         -2.8165455764       -2.4182851000       -1.7245561103
 H          1.4612152677       -1.6458690756        1.5858178223
 C          1.4980456338       -1.7187725034        0.5073969179
 C          0.3666851186       -2.1250565684       -0.1848048835
 C          0.4188367208       -2.1866938787       -1.5732422043
 C          1.5833960601       -1.8582359350       -2.2433055755
 C          2.7145978665       -1.4640236916       -1.5491723992
 C          2.6686419218       -1.3881390311       -0.1636382235
 N          3.8110618410       -0.9952370689        0.5577817838
 S          4.6044048560        0.4126714769        0.1246678431
 O          5.2450653609        0.2265864695       -1.1521640076
 O          5.4728729157        0.7109602939        1.2398739474
 C          3.3236361506        1.6455620536       -0.0041295409
 C          2.7580819806        1.9197645559       -1.2327591171
 C          1.7301144294        2.8464290314       -1.3028346355
 C          1.2889787319        3.4777933245       -0.1505736439
 C          1.8655802072        3.1893117046        1.0767281408
 C          2.8901933271        2.2607745451        1.1536390285
 H          3.3711140843        2.0167199808        2.0873142981
 H          1.5178245322        3.6815972240        1.9708915144
 H          0.4912634776        4.2012666130       -0.2082370039
 H          1.2767919409        3.0725585749       -2.2546404573
 H          3.1350908453        1.4162608876       -2.1075279256
 H          3.6812625791       -1.0223269465        1.5589884132
 H          3.6295558783       -1.2114007141       -2.0601110141
 H          1.6131640930       -1.9125896687       -3.3211640302
 H         -0.4650741746       -2.4799083703       -2.1190647515
 C         -0.8948581033       -2.4594804373        0.5740882013
 H         -0.6776082838       -2.3386679072        1.6443017210
 C         -1.3165585841       -3.8948897510        0.3356955690
 C         -0.5780206434       -4.9913959531        1.0406831156
 C         -1.9824785213       -4.6549327361        1.4414805200
 H         -2.7735115913       -5.3442798534        1.1874931001
 H         -2.1364619819       -4.1424830057        2.3801170413
 H          0.2211622550       -4.7083014660        1.7091434351
 H         -0.4008480513       -5.9151194625        0.5118102297
 H         -1.6602968622       -4.0862648048       -0.6716949828
 O         -1.2963541179       -0.1887484395        2.1572378558
