  62
        -98.94067295
 C         -1.9526315159       -0.8501622385        0.7162886144
 C         -1.8681762241       -0.1855663905       -0.5328676355
 C         -2.0872024839        1.2663547015       -0.4990208318
 C         -2.2660797217        1.8931950289        0.6762116505
 C         -2.4625971178        3.3720787724        0.8738611413
 C         -3.9098699241        3.8442880411        0.6761512175
 C         -4.3988237684        3.8586401406       -0.7727455090
 H         -5.3403460801        4.4110678357       -0.7868239014
 H         -3.6873118542        4.4096623750       -1.3883516245
 C         -4.6340671814        2.4668280116       -1.3759217601
 H         -4.6955888080        1.7280752926       -0.5735002969
 H         -5.5930822965        2.4532375804       -1.8983611866
 C         -3.5667285693        2.0212446469       -2.3756142622
 H         -3.5816689955        2.6802825639       -3.2463408772
 H         -3.8125978205        1.0112310391       -2.7130189804
 C         -2.1419860693        1.9967405247       -1.8063350108
 H         -1.4941670583        1.4633031608       -2.5063952019
 H         -1.7627708652        3.0118173846       -1.6888275937
 H         -4.5673207848        3.2117848626        1.2771269341
 H         -3.9758516781        4.8611419595        1.0698482232
 H         -2.1650792105        3.5885255636        1.9024117155
 H         -1.8012992061        3.9189939453        0.2008154624
 O         -2.2680748734        1.2296571268        1.8644911591
 C         -2.1149274174       -0.1464975140        1.9108794304
 O         -2.1375344872       -0.6219078601        3.0658686306
 H          0.6506874286       -1.2006344095        1.0867558736
 C          0.6774580640       -1.9699110843        0.3266858923
 C         -0.4722900657       -2.7014397699        0.0536613919
 C         -0.4164192595       -3.6888006248       -0.9200491508
 C          0.7575891201       -3.9112790437       -1.6195120667
 C          1.8855119842       -3.1503536057       -1.3766457262
 C          1.8418693679       -2.1671490994       -0.3934470952
 N          2.9732517516       -1.3822398482       -0.1045749429
 S          2.7325036289        0.2122645437        0.3960784638
 O          2.4594353237        0.2150641342        1.8130649469
 O          1.7635424590        0.8750029666       -0.4472316369
 C          4.3625579759        0.8758817939        0.1040891051
 C          4.6165891525        1.5572793837       -1.0711880033
 C          5.8955533249        2.0382100159       -1.3046149847
 C          6.8941084853        1.8275133547       -0.3656630221
 C          6.6239100369        1.1425105540        0.8098204184
 C          5.3471239301        0.6599948896        1.0497555089
 H          5.0859663421        0.1303598607        1.9510454924
 H          7.4016617736        0.9832357855        1.5390195462
 H          7.8883716872        2.2025619936       -0.5497670611
 H          6.1070674108        2.5742055481       -2.2157745206
 H          3.8059639074        1.7035920500       -1.7671646757
 H          3.6802457295       -1.4381184251       -0.8254110763
 H          2.7906550145       -3.3080371165       -1.9432175843
 H          0.7869887036       -4.6756468456       -2.3813084512
 H         -1.2976729769       -4.2629613543       -1.1542767954
 C         -1.7119790315       -2.3463675278        0.8382846979
 H         -1.4881194520       -2.5087596590        1.9065755969
 C         -2.9171574102       -3.2142952723        0.5100455258
 C         -4.3108504889       -2.6779570368        0.6411340751
 C         -3.7544201032       -2.9947428610       -0.7126780123
 H         -4.1381517680       -3.8610563063       -1.2315790111
 H         -3.4791614267       -2.1800199680       -1.3627357007
 H         -4.4204652808       -1.6398536984        0.9208785839
 H         -5.0721679323       -3.3236891657        1.0525048214
 H         -2.7705326321       -4.2436858286        0.8226952287
 O         -1.6309833013       -0.7614978420       -1.6258446456
