  62
        -98.93909024
 C         -1.9697755028       -0.9006688581        0.0974148534
 C         -2.2563446422        0.0493042459        1.1019599603
 C         -2.3628576430        1.4519299611        0.6682378796
 C         -2.1587776667        1.7504392459       -0.6266707243
 C         -2.2565012374        3.1021214929       -1.2792852236
 C         -3.6652245746        3.3319194310       -1.8532335437
 C         -4.6737993009        3.9235033345       -0.8690960837
 H         -4.4164962529        4.9670141147       -0.6766391688
 H         -5.6502416818        3.9105179434       -1.3584332362
 C         -4.7862301416        3.1929062735        0.4714059858
 H         -5.7498121039        3.4515651003        0.9143776687
 H         -4.7853668471        2.1143654775        0.3040240651
 C         -3.6702114050        3.5670636777        1.4582497999
 H         -4.1129426530        3.8505119739        2.4153023583
 H         -3.1453597282        4.4471175864        1.0871976352
 C         -2.6575554443        2.4507859059        1.7543112960
 H         -1.7103258289        2.8977220766        2.0767713965
 H         -3.0160523013        1.8467931902        2.5941684996
 H         -3.5887239652        4.0081747575       -2.7069926423
 H         -4.0327396103        2.3729254708       -2.2270899494
 H         -1.9811879066        3.8861956823       -0.5799954668
 H         -1.5376204224        3.0982180354       -2.1015289164
 O         -1.8804431702        0.8035036692       -1.5645509498
 C         -1.7579088010       -0.5324928940       -1.2309926807
 O         -1.4812391063       -1.2814938657       -2.1881155599
 H          0.4464584890       -0.9643315872        0.8985267144
 C          0.6598704815       -1.9139417375        0.4279040751
 C         -0.3801760407       -2.7893945195        0.1414480832
 C         -0.0755241245       -4.0103840196       -0.4460591955
 C          1.2339567521       -4.3237590638       -0.7683063666
 C          2.2588184765       -3.4283448976       -0.5261839860
 C          1.9662143276       -2.2118498791        0.0811350118
 N          2.9814030108       -1.2806935852        0.3665955559
 S          2.6028364456        0.3612729975        0.2353487889
 O          1.9904618246        0.7963910535        1.4668081012
 O          1.8602160031        0.6156618429       -0.9786831451
 C          4.2442547935        1.0495159186        0.1140562593
 C          4.9699575275        1.2452397361        1.2740040803
 C          6.2592982641        1.7448468026        1.1811407978
 C          6.7991281428        2.0372955481       -0.0626760529
 C          6.0583279228        1.8371647102       -1.2178364137
 C          4.7683778629        1.3368979196       -1.1320483962
 H          4.1509413286        1.1724613781       -2.0008287597
 H          6.4788055014        2.0681380622       -2.1832585479
 H          7.8026055627        2.4262270000       -0.1323944531
 H          6.8369172857        1.9044195413        2.0772035376
 H          4.5037873093        1.0111793132        2.2168016937
 H          3.8492735209       -1.4953170325       -0.1064046315
 H          3.2751928713       -3.6644431074       -0.8023852855
 H          1.4563189867       -5.2726555798       -1.2324156795
 H         -0.8648023928       -4.7108023672       -0.6648918560
 C         -1.7848810466       -2.3561481741        0.4848799495
 H         -1.8980903912       -2.3858867970        1.5794718529
 C         -2.8568326664       -3.2223630709       -0.1425712389
 C         -3.3259028152       -4.4672346850        0.5479928127
 C         -4.2148853038       -3.2627229347        0.4895557525
 H         -5.0818750377       -3.2885897703       -0.1532537691
 H         -4.3566946682       -2.6846271874        1.3911322751
 H         -3.5870233447       -5.3236774052       -0.0550717743
 H         -2.8713700751       -4.7141056426        1.4954823668
 H         -2.8078638164       -3.2202800718       -1.2257863442
 O         -2.4215404131       -0.2621733126        2.3147439025
