  62
        -98.93467048
 C         -2.6994558499       -0.9502117001        0.6104667190
 C         -3.0680735400        0.2465206199        1.2780539589
 C         -4.4134722100        0.7599674198        1.0034189689
 C         -5.2250669000        0.0821647897        0.1718788889
 C         -6.6405592300        0.4497770095       -0.1821585411
 C         -6.7550512801        1.4796890095       -1.3141005111
 C         -6.3590986802        2.9072426995       -0.9354005412
 H         -6.6916861303        3.5577288195       -1.7467553612
 H         -6.8990485503        3.2062389495       -0.0364387012
 C         -4.8521232203        3.1114244397       -0.7254615112
 H         -4.3048096702        2.2785427597       -1.1731838511
 H         -4.5319736704        4.0183795697       -1.2432740812
 C         -4.4278629503        3.2519372798        0.7365624988
 H         -3.3401954803        3.3555807499        0.7683340488
 H         -4.8656046304        4.1589596397        1.1594831288
 C         -4.8161235102        2.0629234198        1.6252896689
 H         -5.8880553602        2.0746449797        1.8221692289
 H         -4.2836725902        2.1559812598        2.5750003889
 H         -6.1451954201        1.1430456095       -2.1556375611
 H         -7.7971959601        1.4889701294       -1.6417249111
 H         -7.1287752499       -0.4722956305       -0.5050185211
 H         -7.1540503001        0.8230862395        0.7044010589
 O         -4.8411823499       -1.0653821103       -0.4435359811
 C         -3.5683098698       -1.6000755302       -0.2679886610
 O         -3.3682348197       -2.6295210202       -0.9366286810
 O         -2.3056671501        0.8493757500        2.0811725989
 C         -1.3102000298       -1.4850465099        0.9045409790
 C         -0.2868465399       -0.9529218798       -0.0663543010
 C         -0.5129551599       -0.9557399999       -1.4385797910
 C          0.4533405901       -0.4852587498       -2.3098010110
 C          1.6622483200       -0.0064461497       -1.8354386111
 C          1.9001318400       -0.0038340196       -0.4682128310
 C          0.9255952301       -0.4702823397        0.4045487890
 H          1.1105330601       -0.4506853297        1.4707577390
 N          3.1358837000        0.4793368305        0.0221047889
 S          4.4958203701       -0.4619017094       -0.3398738810
 O          4.4953153101       -0.7582669894       -1.7483575610
 O          4.5550638902       -1.5992271794        0.5551304390
 C          5.8078087800        0.6808432808        0.0419322889
 C          6.6257568900        0.4552669209        1.1314201590
 C          7.6330155099        1.3654453510        1.4126207489
 C          7.8009955798        2.4798537410        0.6053229089
 C          6.9697169198        2.6930944708       -0.4847326711
 C          5.9623126799        1.7865331707       -0.7719949211
 H          5.2977773299        1.9096101807       -1.6109851111
 H          7.1042214397        3.5610861308       -1.1099426811
 H          8.5856700097        3.1862708310        0.8258235189
 H          8.2813560599        1.2016229911        2.2583519089
 H          6.4612439401       -0.4271126291        1.7287636890
 H          3.1083693300        0.5953041205        1.0278608989
 H          2.4254721700        0.3450984704       -2.5093332011
 H          0.2630038401       -0.4934692099       -3.3726506210
 H         -1.4489720098       -1.3411561900       -1.8148620410
 H         -1.0604914999       -1.0747124399        1.8966121590
 C         -1.2611794897       -3.0023512699        1.0227667890
 C         -0.6505352096       -3.8965739299       -0.0093012710
 C          0.0361094604       -3.7007358398        1.3071021090
 H          0.0405050305       -4.5143185398        2.0165731091
 H          0.9385455103       -3.1067667397        1.3127247890
 H         -1.1415072095       -4.8361313599       -0.2105256809
 H         -0.2125433396       -3.4427656899       -0.8845426010
 H         -2.1393598396       -3.3912021200        1.5287208090
