  62
        -98.94787055
 C         -1.1239369304       -1.1542383237        0.0442506138
 C         -1.5805114147       -0.1331138036        0.9100544285
 C         -2.5050722518        0.8446776940        0.3226215579
 C         -2.8366999707        0.7368680681       -0.9769376279
 C         -3.7950251744        1.6427249271       -1.6934937185
 C         -5.2305086365        1.1028682871       -1.6262479160
 C         -5.6761312583        0.7096036239       -0.2178132886
 H         -6.7123291422        0.3718766541       -0.2872390642
 H         -5.0811666934       -0.1427896721        0.1177650351
 C         -5.5737314719        1.8381616584        0.8176461275
 H         -5.5022720906        2.8008165690        0.3100395510
 H         -6.4894930212        1.8520589993        1.4123211705
 C         -4.4081729331        1.6950555250        1.7977730297
 H         -4.4227820381        0.6956333164        2.2394845842
 H         -4.5552654706        2.4143626057        2.6077411806
 C         -3.0108578252        1.9431396726        1.2153922541
 H         -2.3079524088        1.9961768615        2.0523762697
 H         -2.9919495040        2.9022635945        0.6926928255
 H         -5.2975635195        0.2204101160       -2.2667705523
 H         -5.9037835900        1.8640114326       -2.0248424032
 H         -3.7459452619        2.6361703654       -1.2511759860
 H         -3.4859660142        1.7086982302       -2.7383423278
 O         -2.3678703003       -0.2491434153       -1.7829621333
 C         -1.4958627427       -1.2142807255       -1.2988920352
 O         -1.1364176000       -2.0532827637       -2.1469142605
 O         -1.2248242553       -0.0387286246        2.1161764514
 C         -0.1411276871       -2.1775577640        0.5761469493
 C          1.1841396924       -2.0984685386       -0.1449000901
 C          2.0336496057       -3.1928908568       -0.2643658774
 C          3.2548524804       -3.0654105354       -0.9026142537
 C          3.6649305030       -1.8497048946       -1.4195794617
 C          2.8238246858       -0.7488344310       -1.3042633354
 C          1.5995527248       -0.8829906787       -0.6690640228
 H          0.9453627068       -0.0274096654       -0.6144903445
 N          3.1914043311        0.4987589781       -1.8238151592
 S          2.6125799795        1.9169187977       -1.1659253069
 O          1.2277688019        2.1151205182       -1.5175321805
 O          3.5342536349        2.9247227507       -1.6470104900
 C          2.7941852572        1.7284009742        0.5982104062
 C          1.6803399377        1.6964571854        1.4105884212
 C          1.8452736020        1.4992903441        2.7721307263
 C          3.1189047816        1.3472044340        3.2967502676
 C          4.2316183465        1.3978991796        2.4700062534
 C          4.0706778571        1.5858363832        1.1073513338
 H          4.9119632377        1.6353817648        0.4354928425
 H          5.2210616948        1.2851546407        2.8828901035
 H          3.2431789353        1.1895025210        4.3564964894
 H          0.9709706146        1.4457357906        3.4012509088
 H          0.7001771452        1.8116159220        0.9741206341
 H          4.1417249072        0.5760729599       -2.1522783711
 H          4.6170210642       -1.7527881340       -1.9178298946
 H          3.9005825948       -3.9253042681       -0.9950120295
 H          1.7342766578       -4.1474720907        0.1365310620
 H          0.0333119758       -1.8942491910        1.6261477296
 C         -0.7459621799       -3.5677495071        0.5435304836
 C         -0.4480345321       -4.5576928733        1.6288952861
 C         -1.8007633867       -3.9190452690        1.5487394276
 H         -2.6407379915       -4.5169383569        1.2282969204
 H         -2.0553718146       -3.1661230406        2.2805522315
 H         -0.3601744710       -5.6006897848        1.3640705347
 H          0.2082317912       -4.2453162008        2.4271093754
 H         -0.8766183259       -3.9374181812       -0.4673164822
