  62
        -98.92984044
 C         -2.3674699420       -0.6850362500        0.2403885452
 C         -2.5624408764        0.7181676668        0.2638804761
 C         -3.8356137448        1.2279743376       -0.2734805661
 C         -4.7283366503        0.3521792835       -0.7660528108
 C         -6.0992177456        0.6437851248       -1.3113241495
 C         -7.1638579215        0.5030486103       -0.2101984767
 C         -7.4062761296        1.7650390720        0.6167147204
 H         -7.9215820595        2.5045234437        0.0002771066
 H         -8.0783011467        1.4940035832        1.4341936687
 C         -6.1505539566        2.4116114669        1.2074595377
 H         -5.4925616797        1.6393576402        1.6104380135
 H         -6.4595603285        3.0408020268        2.0444782112
 C         -5.3822075717        3.2744702264        0.1952690065
 H         -6.0051100361        3.4314120043       -0.6850848453
 H         -5.2000494203        4.2613837470        0.6257551766
 C         -4.0148568881        2.7210940420       -0.2326770460
 H         -3.7549085588        3.1304526806       -1.2148721728
 H         -3.2449840981        3.0723342027        0.4620112384
 H         -6.8589354242       -0.3151949976        0.4471279270
 H         -8.1101386290        0.2153156079       -0.6725987086
 H         -6.1313649346        1.6288517276       -1.7670230278
 H         -6.2931420373       -0.1070963575       -2.0800218795
 O         -4.4999415004       -0.9878412408       -0.7813144609
 C         -3.3302369320       -1.5475355655       -0.2866390596
 O         -3.2935044916       -2.7867732768       -0.3830747328
 H          1.5039812408       -0.3712599257        0.9417901654
 C          1.2832816731       -0.8622140054        0.0060194576
 C          0.0028181333       -1.3361459932       -0.2426281310
 C         -0.2624305635       -1.9437020055       -1.4657238560
 C          0.7345659381       -2.0646900674       -2.4163912862
 C          2.0092185404       -1.5894267100       -2.1659450075
 C          2.2890579323       -0.9903147128       -0.9423423128
 N          3.5944252730       -0.5617051206       -0.6522933060
 S          3.8696719940        0.7457131545        0.3764375819
 O          3.5947719072        0.3368208175        1.7305993389
 O          3.1713359773        1.9183322077       -0.1006811028
 C          5.6282049268        0.9335375798        0.1523445544
 C          6.1137451303        1.9498105457       -0.6480078507
 C          7.4832186273        2.0614452638       -0.8324372837
 C          8.3382630416        1.1582130795       -0.2193523193
 C          7.8358480898        0.1437481922        0.5824354653
 C          6.4682770836        0.0275650766        0.7723884669
 H          6.0330257328       -0.7382774734        1.3927907447
 H          8.5039625697       -0.5550737483        1.0594111896
 H          9.4032393402        1.2469324052       -0.3650953577
 H          7.8767710576        2.8508752091       -1.4522722883
 H          5.4113034931        2.6324689695       -1.0987715989
 H          4.1766235466       -0.5025800152       -1.4768392059
 H          2.7849431318       -1.6855419045       -2.9102666072
 H          0.5154922296       -2.5337582314       -3.3638612808
 H         -1.2533779459       -2.3257464354       -1.6588344173
 C         -1.0622986444       -1.2017436412        0.8165970043
 H         -0.7285988059       -0.4120708337        1.5101287874
 C         -1.2306380455       -2.4774346643        1.6322182694
 C         -0.7161324884       -3.8116747593        1.1920304241
 C         -0.0462515838       -3.0897886012        2.3199442294
 H         -0.1704100856       -3.4650715195        3.3245199937
 H          0.9207044507       -2.6470748686        2.1306012226
 H         -0.2017723580       -3.8711948480        0.2461147547
 H         -1.3222436004       -4.6768702638        1.4120633333
 H         -2.1670169626       -2.4825490817        2.1813189947
 O         -1.7059569694        1.5182418738        0.7334088641
