  62
        -98.94967599
 C         -1.5021711228       -1.0551128731        0.0309049027
 C         -2.5183126370       -0.6263597642        0.9151793158
 C         -3.0288631573        0.7297701598        0.6914794946
 C         -2.4941643776        1.4929728168       -0.2794782634
 C         -2.8799675214        2.9113242250       -0.6018471095
 C         -4.1037335996        3.0371384014       -1.5198525494
 C         -5.4448384466        2.7042919612       -0.8648103628
 H         -5.5488795613        3.2778234760        0.0567569766
 H         -6.2272479843        3.0400696667       -1.5482458769
 C         -5.6521838812        1.2119655343       -0.5712055724
 H         -6.6507138406        0.9118480855       -0.8964932750
 H         -4.9357041214        0.6242846532       -1.1495325235
 C         -5.5238496773        0.8326844651        0.9040696132
 H         -5.6530342894       -0.2489967445        0.9925626930
 H         -6.3184163439        1.3149147984        1.4776883019
 C         -4.1746196097        1.2004285260        1.5358607839
 H         -4.1126389265        2.2769958458        1.6954786076
 H         -4.0999029369        0.6999595076        2.5047281779
 H         -4.1413446678        4.0708777290       -1.8710368125
 H         -3.9536995374        2.3949290803       -2.3906257598
 H         -3.0571995677        3.4595165770        0.3241439680
 H         -2.0192465524        3.3573524306       -1.1053071231
 O         -1.4996319582        1.0534555011       -1.0934898957
 C         -0.9820623159       -0.2236925068       -0.9600307006
 O         -0.0796217693       -0.5007545802       -1.7747421804
 H          0.4396532509       -0.6075992221        1.5980718755
 C          1.1037278128       -1.3290253141        1.1442286978
 C          0.5836790900       -2.3618328632        0.3745568821
 C          1.4668688282       -3.2775174922       -0.1848121540
 C          2.8320064961       -3.1426779871        0.0012339507
 C          3.3463151586       -2.0833558891        0.7261494265
 C          2.4703823956       -1.1681120718        1.2974143096
 N          2.9381100543       -0.0510471477        2.0241491720
 S          2.6329644911        1.4508398936        1.3394248595
 O          3.2791110502        2.4022714265        2.2190587018
 O          1.2173545143        1.6245193999        1.1422462403
 C          3.5072435245        1.3991027052       -0.2150951171
 C          2.9325619242        0.7678054766       -1.2998058689
 C          3.6662532436        0.6649627592       -2.4726640303
 C          4.9485268204        1.1866072976       -2.5405704927
 C          5.5099897094        1.8180873459       -1.4405975587
 C          4.7864502388        1.9208242457       -0.2641295918
 H          5.1785819283        2.4051076206        0.6157614754
 H          6.5063625989        2.2261952864       -1.4953701434
 H          5.5116317658        1.1013405924       -3.4565603797
 H          3.2213456649        0.1730331521       -3.3227738537
 H          1.9300314993        0.3733303010       -1.2319278746
 H          3.9207036097       -0.1061964593        2.2583228409
 H          4.4119894993       -1.9612200183        0.8489520378
 H          3.5046192139       -3.8617815023       -0.4405059670
 H          1.0850887944       -4.0958385430       -0.7732018858
 C         -0.9123032077       -2.4430783592        0.1948012222
 H         -1.3525184445       -2.8418584068        1.1216291072
 C         -1.3276189345       -3.3296023926       -0.9624566002
 C         -1.5455989670       -4.7983941224       -0.7574794273
 C         -2.7169691183       -3.8906868211       -0.9780549697
 H         -3.2430568296       -3.9412887464       -1.9195488842
 H         -3.3520462618       -3.6573067864       -0.1358142354
 H         -1.2697689069       -5.4762755741       -1.5511678456
 H         -1.3935095636       -5.1932710364        0.2356341358
 H         -0.9111549230       -2.9979054008       -1.9072540271
 O         -2.9707015248       -1.3410503703        1.8517533126
