  62
        -98.93546760
 C          2.3602377001        0.3577001600        0.5530504505
 C          3.3940460900        0.7454287599       -0.3350971597
 C          4.3700164002       -0.3038805301       -0.6675649093
 C          4.2105112505       -1.5515409299       -0.1932250887
 C          5.1052380307       -2.7288133898       -0.4714623483
 C          6.3374668608       -2.8043816491        0.4407118116
 C          7.4239100205       -1.7671081090        0.1536699511
 H          8.3110166907       -2.0698931386        0.7135273211
 H          7.6814495505       -1.7967494695       -0.9054580789
 C          7.0526614103       -0.3327656589        0.5553988605
 H          7.8884051802        0.1231584515        1.0909810102
 H          6.2053781303       -0.3558448488        1.2447283605
 C          6.7110964300        0.5859875704       -0.6177572999
 H          7.5938413899        0.7202476303       -1.2466664301
 H          6.4310851898        1.5636793306       -0.2173414104
 C          5.5570347800        0.0856844898       -1.4964346796
 H          5.2484999698        0.9010512694       -2.1551142600
 H          5.8860488701       -0.7535786404       -2.1086816693
 H          6.7726487310       -3.7988725991        0.3178755521
 H          6.0092027609       -2.7115484687        1.4786196416
 H          5.4230118006       -2.7099716702       -1.5143478783
 H          4.5000224509       -3.6233340899       -0.3086969178
 O          3.1671973306       -1.8996139298        0.6080076415
 C          2.2397835704       -0.9562774398        1.0134089112
 O          1.3605355606       -1.4007541796        1.7808809614
 O          3.5158083597        1.8930680397       -0.8322372703
 C          1.2842912400        1.3131623300        1.0452745502
 C          0.1244930899        1.2935057494        0.0833526103
 C          0.2929268897        1.6360122288       -1.2552346899
 C         -0.7769451404        1.5831858481       -2.1292545498
 C         -2.0300262002        1.1844654481       -1.6948992995
 C         -2.2020429401        0.8156314886       -0.3679703393
 C         -1.1277930100        0.8806821793        0.5116067706
 H         -1.2621479198        0.5817944197        1.5430576207
 N         -3.4746948999        0.4124258686        0.0942955310
 S         -4.2087670297       -0.9372733319       -0.6110370383
 O         -3.6337706394       -2.1530872215       -0.0734895178
 O         -4.1806043099       -0.7965273226       -2.0434882284
 C         -5.8743116397       -0.7350119720       -0.0112297083
 C         -6.3110533494       -1.4867212416        1.0619898321
 C         -7.6004496994       -1.2956473416        1.5338839821
 C         -8.4246373897       -0.3588953121        0.9292338118
 C         -7.9712292799        0.3887235075       -0.1476480386
 C         -6.6837187699        0.2019683876       -0.6242730286
 H         -6.2917458601        0.7550429673       -1.4615746189
 H         -8.6160128701        1.1149216271       -0.6158161389
 H         -9.4273545197       -0.2121764321        1.2985768218
 H         -7.9557521592       -1.8771164013        2.3694388724
 H         -5.6385769292       -2.2094070312        1.4960457824
 H         -3.4629261698        0.2565620390        1.0948327911
 H         -2.8624079403        1.1262983776       -2.3758896594
 H         -0.6353788805        1.8562666277       -3.1643166299
 H          1.2715438496        1.9370788788       -1.5980835701
 H          0.9322767801        0.8790544404        1.9946150604
 C          1.8120752397        2.7081396803        1.3524367695
 C          1.3556535294        3.9473516599        0.6480901890
 C          0.9268978395        3.6923233804        2.0594234191
 H          1.3470439695        4.2941476409        2.8509838388
 H         -0.1005198604        3.4018792803        2.2221911694
 H          2.0942217192        4.7110795699        0.4579809886
 H          0.6166352893        3.8533968194       -0.1315609609
 H          2.8529164297        2.6898001307        1.6572498594
