  62
        -98.93329409
 C          1.9044106006        0.8243415398        0.7248001798
 C          2.2051463107        0.2823064700       -0.5466440103
 C          2.8047200107       -1.0659151000       -0.5600090604
 C          2.9697281407       -1.7338816801        0.5957337695
 C          3.5082888608       -3.1222012802        0.8720935493
 C          4.3589596808       -3.8510933700       -0.1660915708
 C          5.7036702308       -3.1946952099       -0.4743875506
 H          6.3374074408       -3.2621995100        0.4133862694
 H          6.1842007709       -3.7670190597       -1.2709307407
 C          5.6416788508       -1.7262713098       -0.8881706204
 H          5.2923581607       -1.1226781099       -0.0477518603
 H          6.6602423208       -1.4002119297       -1.1152972403
 C          4.7737690808       -1.4261850697       -2.1094502704
 H          5.0752577308       -2.0662256595       -2.9405457005
 H          4.9643232608       -0.3894406096       -2.3989548903
 C          3.2551590108       -1.5742889798       -1.8989278805
 H          2.7462281508       -0.9594110697       -2.6468999804
 H          2.9300545208       -2.6016449898       -2.0455728406
 H          4.5626289909       -4.8437357800        0.2448313691
 H          3.7928761509       -3.9989858299       -1.0809811508
 H          4.0766566307       -3.0366597703        1.8037166893
 H          2.6335130108       -3.7418292902        1.1000728092
 O          2.5782226106       -1.2041240103        1.7930012195
 C          2.0487947206        0.0698125796        1.8890144397
 O          1.7499834105        0.4117078194        3.0522898797
 H         -0.7859426694        0.6186752797        0.6014421297
 C         -0.8478001294        1.4567336198       -0.0800358802
 C          0.1735501805        2.3995264598       -0.0970254400
 C          0.0812257505        3.4641065799       -0.9830631299
 C         -1.0102438695        3.5762674400       -1.8272223099
 C         -2.0292671994        2.6435759300       -1.7991482501
 C         -1.9401312094        1.5660649798       -0.9228653102
 N         -2.9401340793        0.5796564698       -0.9033891404
 S         -3.2024871294       -0.3122478404        0.4996073995
 O         -3.2766666494        0.5653188394        1.6470942596
 O         -2.2298417993       -1.3758490804        0.5656075493
 C         -4.8152805893       -0.9866714004        0.1462102993
 C         -5.9349722594       -0.3658605606        0.6672745194
 C         -7.1874998293       -0.8761989906        0.3640515792
 C         -7.2989467092       -1.9909122005       -0.4532725609
 C         -6.1662188292       -2.6040935903       -0.9680478710
 C         -4.9107805092       -2.0995509403       -0.6678938009
 H         -4.0023244592       -2.5469335902       -1.0366018409
 H         -6.2563307591       -3.4724340203       -1.6005258011
 H         -8.2744195892       -2.3864683305       -0.6880578110
 H         -8.0691565394       -0.4037289807        0.7660229893
 H         -5.7976571094        0.4925028993        1.3050146895
 H         -3.8026798393        0.8758333198       -1.3385103304
 H         -2.8800028294        2.7349455000       -2.4569590301
 H         -1.0689261295        4.4064206301       -2.5148167698
 H          0.8709451605        4.1957350000       -1.0275434997
 C          1.3072751405        2.2110990397        0.8818230300
 H          0.8651866905        2.2128497296        1.8935120900
 C          2.3302330205        3.3375362698        0.8539894902
 C          3.7610007005        3.0910937798        1.2275303702
 C          3.4026109505        3.4197503100       -0.1889139498
 H          3.6717991205        4.3940651001       -0.5699290096
 H          3.4386364306        2.6345400301       -0.9266853699
 H          4.2711315704        3.8362267097        1.8194662303
 H          4.0478651205        2.0760401898        1.4627956401
 H          1.9046186704        4.2774198597        1.1923151803
 O          1.9935275707        0.8830108101       -1.6316725002
