  62
        -98.94795926
 C          1.2517957865       -0.7906598102       -0.3839699195
 C          2.0861637705       -0.5892224375        0.7412345577
 C          3.0468546512        0.5182609998        0.6337132320
 C          3.0348342833        1.2992128632       -0.4618260233
 C          3.9864784997        2.4308485986       -0.7190600206
 C          5.2280809070        1.9500252932       -1.4833278255
 C          5.8811490452        0.7068211848       -0.8791110915
 H          5.1956573519       -0.1379587594       -0.9768246160
 H          6.7630004584        0.4777317057       -1.4811529007
 C          6.2911839199        0.8575977366        0.5924243368
 H          7.2959458920        0.4492609386        0.7196150985
 H          6.3349589557        1.9143460063        0.8583598892
 C          5.3836357816        0.1240004384        1.5816856992
 H          5.8796233262        0.1155080299        2.5558629011
 H          5.2628411087       -0.9153521239        1.2664000743
 C          3.9890433903        0.7299917727        1.7852821663
 H          4.0787287729        1.7929354545        2.0198252217
 H          3.5288111180        0.2282326368        2.6418345149
 H          5.9519208867        2.7664584202       -1.5133399392
 H          4.9338293503        1.7186597792       -2.5096700093
 H          3.4691707443        3.1847985464       -1.3152980761
 H          4.2791996855        2.8745818339        0.2306590130
 O          2.1725550269        1.1153623987       -1.4940939343
 C          1.2611609903        0.0728814410       -1.4788414649
 O          0.5203656520        0.0207834109       -2.4829056045
 O          2.0345669304       -1.2961169635        1.7817582107
 C          0.2328799623       -1.9148708036       -0.3816029553
 C         -0.7932382331       -1.6895079897        0.7036166369
 C         -1.3265395617       -2.7094340020        1.4815638688
 C         -2.2913223194       -2.4288197293        2.4340424067
 C         -2.7654823250       -1.1415499489        2.6118526627
 C         -2.2422894323       -0.1156805495        1.8332231811
 C         -1.2593509243       -0.3970559246        0.8990607194
 H         -0.8396216271        0.4133061773        0.3232599489
 N         -2.6952547458        1.2066190202        1.9614104132
 S         -2.8354279599        2.1489726059        0.5853243556
 O         -1.5386847212        2.6065236846        0.1518687590
 O         -3.7735181944        3.1861472265        0.9610684721
 C         -3.5857547043        1.0713809159       -0.6232025888
 C         -2.8629188380        0.5765265447       -1.6888694514
 C         -3.4828080727       -0.3024094376       -2.5645020932
 C         -4.8036021970       -0.6693238770       -2.3630923306
 C         -5.5193709838       -0.1561945575       -1.2915681354
 C         -4.9058061731        0.7192514000       -0.4119132989
 H         -5.4309270049        1.1495615252        0.4253294899
 H         -6.5487332317       -0.4376761048       -1.1392399365
 H         -5.2768007435       -1.3566665709       -3.0464180211
 H         -2.9170777505       -0.6956823958       -3.3943477404
 H         -1.8330689038        0.8672804356       -1.8299915991
 H         -3.4791321194        1.3312438627        2.5849671862
 H         -3.5239207444       -0.9280624839        3.3490619983
 H         -2.6891197394       -3.2280282735        3.0406176860
 H         -0.9818590892       -3.7216081720        1.3479184479
 H         -0.2921353799       -1.8477163583       -1.3468270063
 C          0.9207491941       -3.2613570391       -0.2943745666
 C          0.3124480842       -4.4638419692       -0.9495716433
 C          1.5415344924       -3.8350272841       -1.5316212665
 H          2.4828730677       -4.3562670337       -1.4430051589
 H          1.4437016374       -3.2651663765       -2.4446108480
 H          0.4124098421       -5.4221554247       -0.4626125875
 H         -0.6206095361       -4.3290614035       -1.4754036472
 H          1.4508491911       -3.3972068191        0.6409745549
