  62
        -98.93577020
 C         -1.9482415970       -1.5984032712        0.0226514629
 C         -1.6410967544       -0.2913518278       -0.4292676605
 C         -2.7824253424        0.6377647858       -0.5452163553
 C         -4.0217974811        0.2126110325       -0.2499141143
 C         -5.3233521879        0.9661517754       -0.3630603200
 C         -5.3517434270        2.4080152825        0.1639441131
 C         -4.4171084788        2.6844455938        1.3504400303
 H         -4.9840180960        3.1825327662        2.1394076742
 H         -4.0446646720        1.7448417150        1.7623146539
 C         -3.2369088836        3.5856190381        0.9803359149
 H         -2.8387917005        4.0331565584        1.8942598834
 H         -3.6057641941        4.3999455524        0.3526933287
 C         -2.0717411201        2.8956099807        0.2707532159
 H         -1.3729412950        3.6723523706       -0.0459114350
 H         -1.5371813988        2.2493313126        0.9722431280
 C         -2.4433860549        2.0426099927       -0.9527973548
 H         -3.2470926223        2.5006816539       -1.5244933089
 H         -1.5566302410        1.9651122890       -1.5874454414
 H         -6.3822455270        2.6176836371        0.4556074030
 H         -5.1091322857        3.0960923289       -0.6447751405
 H         -5.6287904099        0.9626103948       -1.4134499049
 H         -6.0498036413        0.3615551171        0.1852008567
 O         -4.2698275044       -1.0545608182        0.1886803145
 C         -3.2495050347       -1.9724823966        0.3632333302
 O         -3.6224036628       -3.0709259628        0.8226341924
 H          1.6998463803       -2.3355490083       -0.7378540754
 C          1.5700680122       -1.9417826257        0.2579289165
 C          0.3346790248       -2.0237371702        0.8788160534
 C          0.1940292310       -1.4784884794        2.1521511195
 C          1.2583740017       -0.8600468580        2.7792617037
 C          2.4900901064       -0.7759205985        2.1535103445
 C          2.6405268139       -1.3175791425        0.8848324105
 N          3.8875440131       -1.2400421357        0.2354138689
 S          4.6194761404        0.2598760229        0.1021134400
 O          5.6301270362        0.0893966154       -0.9181938846
 O          5.0941687488        0.6744644891        1.3987273429
 C          3.3473087500        1.3671406580       -0.4719704231
 C          2.6926644981        2.1841806251        0.4256858659
 C          1.6844492528        3.0125603029       -0.0382518981
 C          1.3474094140        3.0048465196       -1.3818181021
 C          2.0103222948        2.1732521172       -2.2698120999
 C          3.0187208136        1.3428157158       -1.8122259806
 H          3.5646223228        0.6896433334       -2.4743147383
 H          1.7400257957        2.1655151433       -3.3137571453
 H          0.5622233637        3.6513183506       -1.7419383439
 H          1.1624723346        3.6566052650        0.6513893725
 H          2.9864519041        2.1640264204        1.4624479940
 H          3.8953191229       -1.7004114322       -0.6637911678
 H          3.3305253725       -0.2923277831        2.6244631623
 H          1.1301254079       -0.4377718195        3.7648020141
 H         -0.7708423198       -1.5342342631        2.6389583852
 C         -0.8700627364       -2.6502882709        0.2222350545
 H         -1.3046909331       -3.3734778031        0.9319854947
 C         -0.5287731413       -3.4324504275       -1.0378399787
 C         -1.5609721197       -3.6777349983       -2.0963386917
 C         -0.4004960102       -2.7735182428       -2.3775427386
 H          0.3675507922       -3.1252046226       -3.0514628741
 H         -0.5754603669       -1.7105353173       -2.4291991458
 H         -1.5871565284       -4.6475956837       -2.5701945959
 H         -2.5366761072       -3.2355407750       -1.9570287524
 H          0.1481964436       -4.2560998161       -0.8306375823
 O         -0.4852876405        0.0937479951       -0.7370897873
