  62
        -98.94270244
 C         -1.3273337841       -1.5975125436        0.3167383358
 C         -1.9131358760       -1.1015585736       -0.8740369657
 C         -2.9429880090       -0.0640296072       -0.6984568397
 C         -3.2166099370        0.3999544887        0.5339563959
 C         -4.2151730608        1.4769127992        0.8439217700
 C         -3.5759024540        2.8717784894        0.8217586878
 C         -2.7358694199        3.1476526425       -0.4248699948
 H         -2.3622417582        4.1708650357       -0.3478843324
 H         -1.8673729351        2.4848215042       -0.4229938559
 C         -3.4922664459        2.9856757994       -1.7504288202
 H         -3.2529614960        3.8323676031       -2.3973454790
 H         -4.5678361632        3.0095407579       -1.5714920331
 C         -3.1373873107        1.7170378612       -2.5272668754
 H         -3.5527224859        1.8069228682       -3.5347432719
 H         -2.0515762083        1.6409810080       -2.6294461156
 C         -3.6620402172        0.4040509435       -1.9331359564
 H         -4.7335686789        0.4924405299       -1.7410876948
 H         -3.5119494679       -0.3798759745       -2.6815587865
 H         -4.3713780683        3.6152566810        0.8981134619
 H         -2.9324186269        2.9699518563        1.6981546682
 H         -4.6209184639        1.2893707389        1.8395104689
 H         -5.0259634475        1.4272926096        0.1191623795
 O         -2.5833689465       -0.0489480064        1.6466008116
 C         -1.6517054348       -1.0698759182        1.5699159266
 O         -1.1863175308       -1.4219757404        2.6711723233
 O         -1.6076856775       -1.4882977932       -2.0337010877
 C         -0.3183915758       -2.7301112118        0.3278475782
 C          1.0905912687       -2.2834549911        0.0102226294
 C          2.1738719038       -3.0375443814        0.4514347518
 C          3.4717946365       -2.6421331213        0.1831062779
 C          3.7212423751       -1.4780030426       -0.5233190437
 C          2.6482210665       -0.7175338315       -0.9640630487
 C          1.3460637293       -1.1236701602       -0.7036094267
 H          0.5234394912       -0.5216268760       -1.0616955697
 N          2.8990466346        0.5032578520       -1.6350724270
 S          3.4385001829        1.7360068828       -0.6339699702
 O          3.4688370577        2.9276246129       -1.4498418428
 O          4.6876824185        1.3285607877       -0.0452445075
 C          2.1849266223        1.8909623116        0.6270429507
 C          2.1164038114        0.9365989647        1.6238210057
 C          1.0871335239        1.0070011760        2.5490566714
 C          0.1607687533        2.0353623372        2.4737847625
 C          0.2551694203        2.9975335931        1.4803343276
 C          1.2664270251        2.9172570804        0.5363575695
 H          1.3667450827        3.6359129150       -0.2613915673
 H         -0.4579582249        3.8047746785        1.4346877542
 H         -0.6406945726        2.0764924146        3.1950104736
 H          0.9944436509        0.2501719317        3.3115573046
 H          2.8628578064        0.1603479097        1.6677741478
 H          2.0984287016        0.8345206185       -2.1561810308
 H          4.7239889297       -1.1338589214       -0.7160398776
 H          4.2990890762       -3.2395987061        0.5341067031
 H          1.9931093131       -3.9372652181        1.0189782666
 H         -0.3136219775       -3.1121106093        1.3585494305
 C         -0.7172137156       -3.8664100157       -0.5987377332
 C         -0.4344482732       -5.2865963656       -0.2174326992
 C         -1.8422643545       -4.7731191799       -0.2030712747
 H         -2.5284893818       -5.1057906270       -0.9670682102
 H         -2.3098407619       -4.5958712760        0.7549674909
 H         -0.1465785077       -5.9785105784       -0.9939451779
 H          0.0369609535       -5.4733499722        0.7353422278
 H         -0.6435622671       -3.6014037862       -1.6459375817
