  62
        -98.93590469
 C         -1.4713037376       -1.3636148668        0.1934886662
 C         -1.6251098995       -0.0724251780        0.7551593840
 C         -2.7387891915        0.7520195654        0.2564972103
 C         -3.5586271822        0.2462849905       -0.6838464875
 C         -4.7403570408        0.8536475653       -1.4105638350
 C         -5.3840698449        2.1448566770       -0.9124963430
 C         -6.1125238033        2.0201905044        0.4253673191
 H         -7.0064421649        1.4087665829        0.2783021047
 H         -6.4386291660        3.0163969847        0.7320396162
 C         -5.3070083462        1.3903654635        1.5590949409
 H         -5.0551400495        0.3593564666        1.3021328400
 H         -5.9480970075        1.3527556666        2.4441115652
 C         -4.0286871036        2.1322995031        1.9442806453
 H         -3.6416608374        1.6697714575        2.8564354440
 H         -4.2626038554        3.1740086683        2.1726069001
 C         -2.9021673067        2.1008933841        0.8968866360
 H         -1.9608164763        2.3139764815        1.4126016501
 H         -3.0460608997        2.8716448884        0.1429817320
 H         -6.1239043335        2.4336397546       -1.6639393005
 H         -4.6485028145        2.9427518573       -0.8732450410
 H         -5.5007902854        0.0673260876       -1.4508406652
 H         -4.4050884171        1.0089308436       -2.4419065989
 O         -3.3769882915       -1.0064344312       -1.1903686668
 C         -2.3425131398       -1.8386982147       -0.7861381237
 O         -2.3334708169       -2.9387065794       -1.3664470671
 O         -0.8529741178        0.3811885177        1.6432008917
 C         -0.3001610618       -2.1911507173        0.6950267732
 C          0.8932296850       -1.9381762838       -0.1904907755
 C          0.8581119379       -2.2462930329       -1.5483769540
 C          1.9500139582       -1.9816519507       -2.3531291809
 C          3.0838050113       -1.3831336156       -1.8294716237
 C          3.1229315849       -1.0587656564       -0.4795214168
 C          2.0348746034       -1.3509402414        0.3332884718
 H          2.0815865354       -1.0913031969        1.3801263252
 N          4.2539274124       -0.4378049212        0.0810016192
 S          4.0302065408        0.9598608204        0.9816283383
 O          5.3478428447        1.5528071278        1.0583346707
 O          3.4062787468        0.6391979222        2.2380927445
 C          2.9727424707        1.9693534954       -0.0395717843
 C          3.5757769254        2.7431953539       -1.0133765943
 C          2.7817485406        3.4772302231       -1.8781505313
 C          1.4007059788        3.4145827259       -1.7650318998
 C          0.8124055478        2.6326167558       -0.7841004982
 C          1.6008437241        1.9017842325        0.0919381193
 H          1.1541727067        1.2950358941        0.8643895831
 H         -0.2608835391        2.5750044188       -0.6891248785
 H          0.7788388902        3.9791288710       -2.4418305484
 H          3.2382792068        4.0906073708       -2.6381959979
 H          4.6525774118        2.7673686840       -1.0618111893
 H          5.0128175424       -0.3070849893       -0.5734086445
 H          3.9319761779       -1.1676103242       -2.4613674956
 H          1.9148129018       -2.2330210203       -3.4023410380
 H         -0.0351383835       -2.6929992849       -1.9584802591
 H         -0.0662498190       -1.7734041687        1.6870903658
 C         -0.6306641417       -3.6653961357        0.8842538919
 C          0.1119806634       -4.7757403145        0.2074802799
 C          0.3048478842       -4.5347880998        1.6722082472
 H         -0.1092214817       -5.2395183248        2.3774246633
 H          1.2393083823       -4.0934553811        1.9870192393
 H         -0.4580681495       -5.6368404684       -0.1066684953
 H          0.9219844329       -4.5233841521       -0.4582611706
 H         -1.6908049065       -3.8315835580        1.0420979976
