  62
        -98.94189346
 C         -1.1908205033       -0.9815387250        0.4097632286
 C         -2.0519367846       -0.6982585209       -0.6736154023
 C         -3.0481910626        0.3727803761       -0.4685331868
 C         -3.0498055936        1.0438973849        0.6982381982
 C         -3.9844217946        2.1378896724        1.1414670487
 C         -5.3696710886        1.6076196341        1.5474401575
 C         -5.9543891860        0.5513251909        0.6132455286
 H         -5.2594566419       -0.2872556750        0.5417642582
 H         -6.8724582814        0.1747395906        1.0718086846
 C         -6.3013582673        1.0436720733       -0.7895818134
 H         -6.7775354159        0.2131850270       -1.3168934048
 H         -7.0317978078        1.8523918888       -0.7148822826
 C         -5.1244334608        1.5311133095       -1.6369045553
 H         -5.4809810507        1.6244456530       -2.6670203373
 H         -4.8054291756        2.5240329645       -1.3310085865
 C         -3.9296417888        0.5832405009       -1.6761635972
 H         -4.2726334525       -0.4136332020       -1.9760172190
 H         -3.2537603114        0.9079359361       -2.4771746892
 H         -6.0548099337        2.4539398250        1.6193663268
 H         -5.2803143843        1.1602041507        2.5403382950
 H         -3.5224893678        2.6106352834        2.0113421679
 H         -4.0671948439        2.8924874539        0.3646372947
 O         -2.1679191427        0.7646830009        1.7006515886
 C         -1.2162234846       -0.2276611557        1.5813889310
 O         -0.4594265365       -0.3433150874        2.5684720422
 H          0.7973531545        0.3667214005       -0.2799829070
 C          1.2469670526       -0.3786698384       -0.9175369965
 C          0.8553637178       -1.7049272201       -0.8017037154
 C          1.4252856759       -2.6394996521       -1.6572952962
 C          2.3515083521       -2.2430623874       -2.6068043108
 C          2.7488136732       -0.9219227638       -2.7080804825
 C          2.1880140823        0.0193603883       -1.8525155243
 N          2.5586559685        1.3716902899       -1.9081247877
 S          2.6578885307        2.2510559199       -0.4885466231
 O          1.3405621190        2.5885136982       -0.0092162662
 O          3.5089940514        3.3724849115       -0.8273368916
 C          3.5107589439        1.1756383765        0.6515242716
 C          2.8478474506        0.5782374137        1.7034377285
 C          3.5483482890       -0.2906499560        2.5266634731
 C          4.8890104260       -0.5459064901        2.2876024971
 C          5.5436031037        0.0693047721        1.2307277169
 C          4.8493334003        0.9352810693        0.4032395873
 H          5.3245509051        1.4426464496       -0.4205374366
 H          6.5881361590       -0.1257792652        1.0492654545
 H          5.4257113633       -1.2253877600        2.9306871114
 H          3.0294099230       -0.7633388360        3.3455428475
 H          1.8021633503        0.7833901893        1.8743290038
 H          3.3189362094        1.5821670263       -2.5376934779
 H          3.4757020640       -0.6175827892       -3.4451773985
 H          2.7784898835       -2.9769097485       -3.2731772431
 H          1.1385975830       -3.6758234250       -1.5860578843
 C         -0.1339090407       -2.0619915959        0.2825428473
 H          0.4121558495       -2.0620534801        1.2385096602
 C         -0.7772277860       -3.4196412973        0.0889193715
 C         -0.1220845007       -4.6527205160        0.6326614319
 C         -1.3626187004       -4.1163791911        1.2793711340
 H         -2.2882188468       -4.6584414903        1.1567278787
 H         -1.2706241281       -3.6228016323        2.2363220121
 H         -0.1981616557       -5.5689014300        0.0666491501
 H          0.8129408429       -4.5328845395        1.1586455992
 H         -1.3155468330       -3.4931453911       -0.8486925847
 O         -2.0045271682       -1.3130112219       -1.7720749311
