  62
        -98.93270824
 C         -2.2347500679       -0.9916449022       -0.2835573764
 C         -3.5009367433       -1.0686474406        0.3424670320
 C         -4.4363679009        0.0429910127        0.0933345139
 C         -4.0272090961        1.0821353409       -0.6564845553
 C         -4.7892600747        2.3223293145       -1.0508226137
 C         -5.6305695185        2.9976537909        0.0431624077
 C         -7.1383568043        2.8400566755       -0.1629582083
 H         -7.6478060048        3.6592474697        0.3493346389
 H         -7.3549467347        2.9379678462       -1.2287592175
 C         -7.7327263346        1.5314103707        0.3547713283
 H         -7.7418956834        1.5456471316        1.4467827294
 H         -8.7722342014        1.4860860121        0.0216580392
 C         -7.0147081761        0.2612406848       -0.1049971983
 H         -6.7306319620        0.3417413070       -1.1536448111
 H         -7.7210750725       -0.5680272619       -0.0286396316
 C         -5.7853426770       -0.0920350357        0.7455920638
 H         -5.7906997182        0.4912564441        1.6708015872
 H         -5.8394334607       -1.1411055202        1.0525750647
 H         -5.3387849641        2.6199051894        1.0218247090
 H         -5.3989630077        4.0639897639        0.0280693067
 H         -4.0280105263        3.0165232608       -1.4143231233
 H         -5.4227010800        2.0796002349       -1.9079136384
 O         -2.7841611787        1.1283740010       -1.2166183025
 C         -1.8640472890        0.1058703780       -1.0587537861
 O         -0.7849110351        0.2952531346       -1.6526089113
 O         -3.8434760849       -2.0343356904        1.0767726731
 C         -1.2474474881       -2.1248444147       -0.0594414430
 C         -0.0973318249       -1.5968432283        0.7617214340
 C         -0.2846625691       -1.3907029592        2.1260522911
 C          0.7262249885       -0.8596031692        2.9036001722
 C          1.9453660094       -0.5210851103        2.3408924232
 C          2.1367447091       -0.7077696704        0.9789058704
 C          1.1214137877       -1.2521711161        0.2007230277
 H          1.2786727107       -1.3816111196       -0.8585804912
 N          3.3777688388       -0.3916268025        0.3846003135
 S          4.0446828377        1.1428936299        0.6076572648
 O          4.2398081051        1.3689315013        2.0172092540
 O          3.2739027131        2.1461733766       -0.0961103737
 C          5.6206997716        0.9034588526       -0.1885160171
 C          5.8166680747        1.3671762323       -1.4747845703
 C          7.0392630563        1.1434136325       -2.0888531881
 C          8.0376113238        0.4609846743       -1.4104282317
 C          7.8253247635        0.0011839483       -0.1190575455
 C          6.6058689855        0.2222277497        0.5004213495
 H          6.3978063958       -0.1103801464        1.5037395769
 H          8.6047847826       -0.5276593959        0.4052832168
 H          8.9875432743        0.2879190382       -1.8911113455
 H          7.2071814093        1.5014258520       -3.0919225969
 H          5.0141815183        1.8983816127       -1.9616750981
 H          3.3530026616       -0.5738448867       -0.6111235873
 H          2.7343359867       -0.0933793364        2.9365811656
 H          0.5679196682       -0.7073739833        3.9608669370
 H         -1.2402754890       -1.6435862196        2.5646128875
 H         -1.7875253026       -2.8636459110        0.5481514550
 C         -0.8305592128       -2.7746934173       -1.3616217516
 C         -0.1567699093       -4.1131321351       -1.3320426841
 C         -1.5618236980       -3.9922672323       -1.8383013174
 H         -1.7410085658       -4.1022368897       -2.8973494327
 H         -2.3636479773       -4.3668308703       -1.2192205220
 H          0.6305603079       -4.3110698746       -2.0431846151
 H         -0.0030372860       -4.5694988801       -0.3660167506
 H         -0.5162987712       -2.0614606210       -2.1143219072
