  62
        -98.94304554
 C         -2.6477430048       -1.1887989863        0.2544312840
 C         -2.7728781385       -0.3311722014       -0.8654142378
 C         -3.7834959517        0.7292846373       -0.7498032876
 C         -4.5354488186        0.8301164509        0.3603313981
 C         -5.6152661283        1.8462784963        0.6145722492
 C         -5.0954727290        3.1905676876        1.1423668914
 C         -4.3667735885        4.0559392999        0.1134887193
 H         -4.9899847976        4.1650838491       -0.7746766551
 H         -4.2513620195        5.0481119737        0.5541865481
 C         -2.9811898625        3.5313269254       -0.2884005858
 H         -2.2637513486        4.3549706165       -0.2815038175
 H         -2.6381678339        2.8027541716        0.4500315449
 C         -2.9238575055        2.8930900483       -1.6763608710
 H         -3.1365791988        3.6481407372       -2.4365704354
 H         -1.9077534638        2.5259360995       -1.8424622539
 C         -3.8907407321        1.7179337355       -1.8719574969
 H         -3.6220983998        1.2025495131       -2.7974279407
 H         -4.9134894110        2.0833746355       -1.9601715280
 H         -5.9578909348        3.7508478857        1.5107096609
 H         -4.4351458669        3.0003633435        1.9916029350
 H         -6.1884197214        2.0090682771       -0.2985863663
 H         -6.2768430654        1.4133677364        1.3679536373
 O         -4.4033353728       -0.0267013596        1.4065248903
 C         -3.4561234616       -1.0341562636        1.3868264177
 O         -3.4347569701       -1.7300757600        2.4215990957
 O         -2.0916107064       -0.4212834040       -1.9229269673
 C         -1.6504123528       -2.3355196934        0.3268145846
 C         -0.2590718805       -1.8397491665        0.6441727813
 C          0.3774946256       -2.2146349029        1.8216190860
 C          1.6569368515       -1.7686576849        2.1030865573
 C          2.3249002895       -0.9378591965        1.2213364914
 C          1.6975021707       -0.5567645235        0.0424334032
 C          0.4175708410       -1.0126264017       -0.2409100651
 H         -0.0691288330       -0.7084048150       -1.1558365519
 N          2.3517721409        0.3094831624       -0.8493274802
 S          3.9376228690       -0.0214144610       -1.2814882651
 O          4.1275665708        0.6318021631       -2.5581498475
 O          4.2168354300       -1.4382328611       -1.2377451607
 C          4.9019632772        0.8289106207       -0.0493774511
 C          4.6605034240        2.1737936369        0.1519694944
 C          5.4109971090        2.8538830007        1.0976353843
 C          6.3867433499        2.1825306192        1.8195650424
 C          6.6191027407        0.8329204140        1.6035534678
 C          5.8711587697        0.1465314446        0.6594490605
 H          6.0127590628       -0.9040242831        0.4613024626
 H          7.3781824376        0.3129435551        2.1655817682
 H          6.9691811963        2.7147190137        2.5550105942
 H          5.2329122885        3.9033791231        1.2686902559
 H          3.8951444715        2.6587340798       -0.4309307283
 H          1.7971813105        0.5441134494       -1.6600778917
 H          3.3206530857       -0.5860177898        1.4365889145
 H          2.1389728861       -2.0683611060        3.0211431394
 H         -0.1430346062       -2.8515725845        2.5220991899
 H         -1.9813151775       -2.9590324191        1.1680053521
 C         -1.6437478294       -3.1920050326       -0.9253783757
 C         -1.1351703756       -4.5981596474       -0.8397462362
 C         -2.5989936470       -4.3403457120       -1.0331704810
 H         -3.0404274164       -4.5544490151       -1.9949578500
 H         -3.2627195325       -4.5178629410       -0.1992273784
 H         -0.5664234333       -4.9913166143       -1.6685558526
 H         -0.8066923301       -4.9533318281        0.1253634553
 H         -1.4345402795       -2.6351173376       -1.8291333540
