  62
        -98.94504488
 C         -1.1336733674       -1.8537302176       -0.6769074817
 C         -0.4501053710       -2.3627605869        0.4570578917
 C          0.9821230332       -2.6582592516        0.2599813026
 C          1.5517834659       -2.4433356216       -0.9381218782
 C          3.0018957537       -2.6580368908       -1.2591300216
 C          3.8296972633       -1.3872214229       -1.0258200735
 C          3.6196710505       -0.7476472848        0.3467463743
 H          4.3040735555        0.1011116096        0.4192127613
 H          2.6084652942       -0.3408460986        0.4128594621
 C          3.8461243684       -1.6909263445        1.5357630613
 H          4.4321122498       -2.5567570939        1.2231472562
 H          4.4256119464       -1.1612187149        2.2948577727
 C          2.5561732681       -2.1606791630        2.2120436408
 H          1.9176460960       -1.2959679425        2.4122273726
 H          2.8185244651       -2.6042624854        3.1768928551
 C          1.7381181945       -3.2033500343        1.4385082489
 H          2.3883472604       -4.0260010004        1.1304690531
 H          0.9806595960       -3.6008457367        2.1209013947
 H          4.8844617896       -1.6397719131       -1.1499925556
 H          3.5628203070       -0.6509353879       -1.7874406750
 H          3.3860988598       -3.4707950559       -0.6456866619
 H          3.0792237189       -2.9410226477       -2.3105112039
 O          0.8606984812       -1.9718858957       -2.0077670492
 C         -0.4823571285       -1.6517205043       -1.8971418751
 O         -0.9864845601       -1.2056424059       -2.9472343319
 H         -1.2395536639        0.0836089063        1.1413420202
 C         -1.8668381906        0.6874564167        0.5029640062
 C         -2.6554442533        0.0822016747       -0.4658799450
 C         -3.4691238075        0.8814989983       -1.2598375370
 C         -3.4865150650        2.2544707468       -1.0895653301
 C         -2.6715316858        2.8565898386       -0.1479913692
 C         -1.8495754690        2.0671549390        0.6486042612
 N         -0.9923863336        2.6498152243        1.5996037623
 S          0.6212267798        2.2023464501        1.6303528246
 O          0.7507825915        0.8359027018        2.0588939760
 O          1.2535724057        3.2003573932        2.4647677286
 C          1.1828663510        2.3868734790       -0.0515201837
 C          1.7880954137        3.5689427097       -0.4312060695
 C          2.1831908542        3.7261811396       -1.7498104809
 C          1.9565139109        2.7097056521       -2.6660952466
 C          1.3432480984        1.5307347813       -2.2713604674
 C          0.9554870698        1.3656551502       -0.9514576514
 H          0.4786888255        0.4566800612       -0.6194746675
 H          1.1497361074        0.7358189048       -2.9756719227
 H          2.2584795534        2.8334776109       -3.6941177267
 H          2.6632877483        4.6399679803       -2.0609137643
 H          1.9482246131        4.3304684949        0.3148242796
 H         -1.0702242879        3.6552458607        1.6612219170
 H         -2.6663036551        3.9294721912       -0.0300216530
 H         -4.1254500464        2.8643305751       -1.7095779894
 H         -4.0760606846        0.4213750903       -2.0253766028
 C         -2.5900362776       -1.4119631233       -0.6681190059
 H         -2.9668461758       -1.6181908903       -1.6835219582
 C         -3.4715727861       -2.1811856315        0.3028899869
 C         -3.9643241484       -1.6074884694        1.5936014167
 C         -4.9171191233       -1.8095295584        0.4559445711
 H         -5.6480167817       -2.6006038611        0.5270694997
 H         -5.2646135678       -0.9297946735       -0.0642871937
 H         -3.6734816104       -0.5997002117        1.8476744545
 H         -4.0156917824       -2.2678669734        2.4457069969
 H         -3.2382665419       -3.2404743006        0.3082627172
 O         -0.9839080605       -2.5807251656        1.5736539704
