  62
        -98.94368272
 C         -1.7716117320       -0.3880101826       -0.3121601632
 C         -2.9615148778       -0.7962159852       -0.9597995725
 C         -4.1966267359       -0.6660856330       -0.1754996780
 C         -4.1284170215       -0.1983654248        1.0846435425
 C         -5.3126473260        0.0311999314        1.9776247982
 C         -5.8522644922        1.4607387394        1.8296808805
 C         -6.0680882370        1.8922383179        0.3791690641
 H         -6.4781386714        2.9042885260        0.3982511247
 H         -5.1002026304        1.9468849113       -0.1241760953
 C         -7.0037582591        0.9768072793       -0.4226125666
 H         -7.7008933796        1.5976481355       -0.9892990174
 H         -7.5960850627        0.3640604367        0.2579282371
 C         -6.2934192353        0.0714497001       -1.4305812789
 H         -5.6270016327        0.6709946628       -2.0558147080
 H         -7.0502459647       -0.3671184414       -2.0865193600
 C         -5.4820140704       -1.0846553729       -0.8323710755
 H         -6.1051839953       -1.6496170622       -0.1359665712
 H         -5.1958331369       -1.7488555590       -1.6533360540
 H         -5.1391456159        2.1489197189        2.2891160056
 H         -6.7942332459        1.5321434893        2.3765221651
 H         -4.9985801612       -0.1239571694        3.0111270765
 H         -6.0909168089       -0.6890605333        1.7328658713
 O         -2.9639828537        0.1655635735        1.6794560298
 C         -1.7569651894        0.0851669324        1.0001180909
 O         -0.7691359379        0.4550916159        1.6609501219
 O         -2.9879581337       -1.2544600224       -2.1343861616
 C         -0.4549937552       -0.4908528991       -1.0599973049
 C          0.4906575321       -1.4055068726       -0.3219844747
 C          0.0316525264       -2.6520768222        0.0976191054
 C          0.8606343054       -3.5142554576        0.7871316982
 C          2.1692439908       -3.1580376738        1.0639537320
 C          2.6410899581       -1.9219868944        0.6413476978
 C          1.8029440283       -1.0557884023       -0.0488064567
 H          2.1882183683       -0.1039561053       -0.3717660455
 N          3.9519571208       -1.5221147918        0.9301374741
 S          4.8204316644       -0.5724992237       -0.1323477038
 O          4.5486721009       -0.9207468327       -1.5075759677
 O          6.1959531139       -0.7208311615        0.2942623981
 C          4.2899718725        1.0951425416        0.1954026414
 C          3.9984630910        1.4703667926        1.4915423883
 C          3.6152145784        2.7789144276        1.7381248943
 C          3.5374885357        3.6868637328        0.6931411906
 C          3.8407864350        3.2963638825       -0.6018777847
 C          4.2217985705        1.9882252340       -0.8557003513
 H          4.4565348532        1.6378831311       -1.8485141280
 H          3.7793140126        4.0043221467       -1.4132623455
 H          3.2368473877        4.7041311143        0.8888719577
 H          3.3736943666        3.0847636573        2.7433979879
 H          4.0605818113        0.7395914156        2.2804712319
 H          4.5267676079       -2.2119236770        1.3904220010
 H          2.8176181969       -3.8294839108        1.6060151834
 H          0.4880914064       -4.4747668428        1.1104158412
 H         -0.9899796205       -2.9327861617       -0.1201922434
 H         -0.7010498812       -0.9622856498       -2.0235559168
 C          0.1119704338        0.8882141284       -1.3234449092
 C          1.0021200432        1.1264676308       -2.5051531235
 C         -0.3950952079        1.6676089753       -2.4983173528
 H         -0.5352958116        2.7324050659       -2.3892942397
 H         -1.1327680997        1.1916609464       -3.1279501390
 H          1.8212832717        1.8210416539       -2.3979374068
 H          1.2231216213        0.2840644358       -3.1433886514
 H          0.3175383380        1.4354265851       -0.4098717761
