  62
        -98.93959458
 C         -2.6748527102       -1.2872042598        0.3669099606
 C         -2.9019639501       -0.5207405700       -0.8026043596
 C         -3.8367107600        0.6079014101       -0.6585834499
 C         -4.4135328002        0.8485460703        0.5319102500
 C         -5.3178389701        2.0077417304        0.8319576897
 C         -4.5182250701        3.2131180604        1.3467828796
 C         -3.3065836200        3.5661718702        0.4838857796
 H         -2.8391601400        4.4488122303        0.9256371095
 H         -2.5777516601        2.7541998402        0.5423587599
 C         -3.6365090499        3.8460803000       -0.9890423005
 H         -4.7013522398        4.0550880900       -1.0973175306
 H         -3.0967408898        4.7412218799       -1.3052680906
 C         -3.2407988698        2.7252540998       -1.9521304502
 H         -2.1955697698        2.4520815098       -1.7854967000
 H         -3.3183429897        3.1100017196       -2.9726721003
 C         -4.0899922199        1.4498675699       -1.8779058701
 H         -5.1480883298        1.7073509699       -1.9554473402
 H         -3.8245286298        0.8246573697       -2.7356542899
 H         -4.1650660603        2.9883193506        2.3557785596
 H         -5.1885617301        4.0725190505        1.4044852893
 H         -6.0286188202        1.6996053006        1.6004308797
 H         -5.8656273400        2.2786964503       -0.0684203604
 O         -4.1895481403        0.0789883305        1.6268538602
 C         -3.3157244404       -0.9921682696        1.5747437604
 O         -3.1977106905       -1.6064258094        2.6534056906
 O         -2.3580994900       -0.7408085502       -1.9169415595
 C         -1.7248829003       -2.4739456898        0.4148673509
 C         -0.3116462503       -2.0151716399        0.6704250510
 C          0.4466939496       -2.5619277097        1.6983995011
 C          1.7423774496       -2.1294277597        1.9224789312
 C          2.3057960897       -1.1445937999        1.1309927211
 C          1.5582636598       -0.5952473500        0.0971983709
 C          0.2604281098       -1.0327290800       -0.1262525292
 H         -0.3144967101       -0.6108803701       -0.9377319593
 N          2.1085207800        0.4174321298       -0.7053492892
 S          3.6595796000        0.2178291196       -1.3128474890
 O          3.7115683902        1.0447128294       -2.4981427291
 O          3.9844003100       -1.1788198004       -1.4877827487
 C          4.6983170099        0.9376636698       -0.0587160990
 C          4.4372720699        2.2363149999        0.3323382607
 C          5.2390736798        2.8172969500        1.3015776307
 C          6.2844157497        2.0951190901        1.8580331310
 C          6.5358987397        0.7936044200        1.4519960712
 C          5.7366001798        0.2061587098        0.4834769512
 H          5.8917483998       -0.8044867702        0.1406223314
 H          7.3493604097        0.2342887600        1.8853990014
 H          6.9067305497        2.5499391502        2.6124639609
 H          5.0462205098        3.8291921501        1.6198462605
 H          3.6177366900        2.7637921998       -0.1267760795
 H          1.4803941101        0.7464932297       -1.4242942593
 H          3.3136083397       -0.8037172799        1.3025448511
 H          2.3197198794       -2.5611595996        2.7256580413
 H          0.0097406995       -3.3214971696        2.3300614612
 H         -2.0451715504       -3.0609896397        1.2896912210
 C         -1.8462853202       -3.3797361401       -0.8044536690
 C         -0.7640515001       -3.5615355103       -1.8222318388
 C         -1.0747140402       -4.6651074801       -0.8589665087
 H         -1.5686586802       -5.5524379101       -1.2247357986
 H         -0.3620264903       -4.8484769600       -0.0688380285
 H         -1.0631193400       -3.6692189405       -2.8539646188
 H          0.1618017499       -3.0212314903       -1.6970235988
 H         -2.8631405202       -3.4103288501       -1.1826088691
