  62
        -98.94317980
 C         -1.7159031578       -0.9721127785        0.2916072458
 C         -2.9206080444       -0.8191990270        1.0292300539
 C         -3.6663556783        0.4242815894        0.8096535926
 C         -3.1606603239        1.3685735188       -0.0033559308
 C         -3.7821694104        2.7052551248       -0.3039297177
 C         -4.8440617539        2.6642297988       -1.4115144604
 C         -6.1690640342        2.0090912207       -1.0194938903
 H         -6.5377847131        2.4601775714       -0.0977037207
 H         -6.8880169602        2.2443646434       -1.8068436062
 C         -6.0985509177        0.4842191073       -0.8563670326
 H         -5.1934720591        0.1078899434       -1.3390640424
 H         -6.9471216250        0.0235125157       -1.3672309146
 C         -6.1253761771       -0.0001822662        0.5935216132
 H         -7.0856706528        0.2550268095        1.0470592749
 H         -6.0337834407       -1.0895835674        0.5930702275
 C         -5.0033738556        0.5707477855        1.4705872075
 H         -5.2020829582        1.6172555995        1.7008359261
 H         -4.9762806146        0.0050962897        2.4051866615
 H         -5.0476955329        3.6964145796       -1.7058158812
 H         -4.4256426243        2.1486014903       -2.2791615261
 H         -2.9717933420        3.3605135907       -0.6301569131
 H         -4.2192433610        3.1190540632        0.6052419269
 O         -1.9769137660        1.2121571075       -0.6482442165
 C         -1.2393383386        0.0358998184       -0.5490016917
 O         -0.2108860993        0.0439856117       -1.2497158575
 O         -3.3509779029       -1.6834258141        1.8376724990
 C         -0.9340534488       -2.2567016305        0.5139609349
 C          0.4943907731       -1.9215840620        0.8527602320
 C          0.8303290789       -1.5577065486        2.1532367721
 C          2.1218302888       -1.1776369400        2.4687416286
 C          3.0967226132       -1.1222813724        1.4877581610
 C          2.7625414241       -1.4611806945        0.1831559026
 C          1.4773987199       -1.8880896068       -0.1228128091
 H          1.2299464147       -2.1475528110       -1.1400600948
 N          3.7240408861       -1.3487934528       -0.8342840604
 S          4.7643845534       -0.0419537832       -0.7977750494
 O          5.1013467821        0.2140014170       -2.1817916966
 O          5.8835303853       -0.3507336033        0.0608933164
 C          3.8747992948        1.3495262781       -0.1120271368
 C          4.5417955340        2.1696263784        0.7773675407
 C          3.8875342324        3.2733608535        1.2992251079
 C          2.5779219677        3.5368689321        0.9282381820
 C          1.9226740866        2.7034197695        0.0359744119
 C          2.5734615243        1.6015927865       -0.4971384513
 H          2.0519718431        0.9453704899       -1.1758570746
 H          0.8991657057        2.8897837235       -0.2500243226
 H          2.0637926822        4.3922640283        1.3376558145
 H          4.3975782102        3.9206483322        1.9944432038
 H          5.5551467735        1.9203647761        1.0481570334
 H          3.3472847172       -1.4838784033       -1.7612609434
 H          4.1061743518       -0.8168047664        1.7124307116
 H          2.3714486050       -0.9094524035        3.4839039053
 H          0.0629628571       -1.5689580740        2.9146152478
 H         -1.4023127368       -2.7067261063        1.4037873570
 C         -1.0536289715       -3.2833693349       -0.6026952138
 C         -2.3772795658       -3.5309412023       -1.2610994585
 C         -1.2542498665       -2.9210057496       -2.0423717869
 H         -0.7647420967       -3.5270865809       -2.7912672213
 H         -1.3140264105       -1.8759736936       -2.3020633894
 H         -2.6670637713       -4.5479059453       -1.4782029158
 H         -3.2002013352       -2.8939741280       -0.9705187847
 H         -0.4403177587       -4.1581096647       -0.4071101000
