  62
        -98.94338802
 C         -1.7112148698       -1.3689561712        0.0611103014
 C         -2.2077008702       -0.4772669609        1.0418978008
 C         -3.2506751308        0.4512277082        0.5922777603
 C         -3.6858480609        0.4008660270       -0.6799320997
 C         -4.7463649215        1.2800361960       -1.2855329102
 C         -4.2229835924        2.6382262960       -1.7738028411
 C         -3.8611997929        3.6339129969       -0.6704423018
 H         -3.7185052235        4.6044062467       -1.1500169224
 H         -4.7008561829        3.7319183869        0.0182398482
 C         -2.5890727426        3.2792829482        0.1128394784
 H         -2.0097424622        2.5439761782       -0.4512964612
 H         -1.9635637432        4.1692873187        0.2135341477
 C         -2.8420597222        2.7377749790        1.5201150787
 H         -3.3024536126        3.5151031991        2.1335453882
 H         -1.8785591520        2.4800228899        1.9671577288
 C         -3.7313601014        1.4881332285        1.5621467996
 H         -3.6723231211        1.0588064692        2.5650971599
 H         -4.7672930916        1.7546737077        1.3552671395
 H         -3.3519921323        2.4681095361       -2.4115924111
 H         -5.0041163427        3.0847445351       -2.3933824414
 H         -5.1475305212        0.7377221352       -2.1444095898
 H         -5.5508029915        1.4354628860       -0.5661942702
 O         -3.2021642604       -0.4905444333       -1.5861148291
 C         -2.1854724798       -1.3761745524       -1.2506307686
 O         -1.8033244495       -2.0979559528       -2.1907146082
 H          0.2849006793        0.0546943897       -0.4437264197
 C          0.9613318998       -0.7448956801       -0.7215937892
 C          0.6530835306       -2.0508710501       -0.3621640483
 C          1.5457061312       -3.0553515497       -0.7168397377
 C          2.7017415910       -2.7591026395       -1.4190738980
 C          2.9944528402       -1.4586779896       -1.7877282289
 C          2.1094764596       -0.4482139299       -1.4390271895
 N          2.4124915987        0.8884558901       -1.7957029304
 S          3.6399983284        1.5792939314       -0.8843822509
 O          3.6194906875        2.9903805312       -1.1945759819
 O          4.8674290888        0.8784735820       -1.1585065506
 C          3.1327176886        1.3043605622        0.8024119293
 C          2.3242923881        2.2417434721        1.4139244087
 C          1.8442829583        1.9839755627        2.6875999489
 C          2.1671519191        0.7920232333        3.3176808797
 C          2.9766508597       -0.1406464866        2.6878890402
 C          3.4649727194        0.1134960028        1.4162876000
 H          4.0965003398       -0.5860939271        0.8933364805
 H          3.2225252203       -1.0679876661        3.1796507008
 H          1.7797648093        0.5877135337        4.3032852398
 H          1.2125114379        2.7056263326        3.1806424585
 H          2.0953807175        3.1552408117        0.8878910181
 H          1.6051912684        1.4952014496       -1.7573802808
 H          3.8935834400       -1.2066162494       -2.3258268191
 H          3.3819308415       -3.5531210192       -1.6868980375
 H          1.3342446219       -4.0759515997       -0.4427282971
 C         -0.5953049691       -2.3205522203        0.4429281119
 H         -0.3697092992       -2.0923228095        1.4963147217
 C         -1.0641419683       -3.7586496007        0.3487714029
 C         -0.5584154676       -4.7900151097        1.3117729535
 C         -1.9677165879       -4.2932629905        1.4182513033
 H         -2.7739083375       -4.9514186312        1.1309953138
 H         -2.2167064782       -3.6289392301        2.2329258329
 H         -0.3976041070       -5.7954456198        0.9526133542
 H          0.1458033423       -4.4705383788        2.0649510433
 H         -1.2640066981       -4.0630706015       -0.6724857169
 O         -1.7915450002       -0.4525362699        2.2304687308
