  62
        -98.94098141
 C          2.5760200072        1.3220526190        0.3033446574
 C          2.8153970151        0.4916218157       -0.8188567491
 C          3.5600559792       -0.7470595581       -0.5493952641
 C          3.9596910232       -1.0386509202        0.7006887784
 C          4.7257711790       -2.2611179334        1.1271424562
 C          3.8407646761       -3.4877263022        1.3881947914
 C          3.2629929230       -4.1515624619        0.1375054700
 H          4.0672610161       -4.3538455225       -0.5706780345
 H          2.8501301697       -5.1136729294        0.4469474942
 C          2.1566037872       -3.3440561729       -0.5563188181
 H          1.7627872905       -2.5911343511        0.1319206174
 H          1.3209086932       -4.0032991473       -0.8046928778
 C          2.5914535336       -2.6575986600       -1.8513338050
 H          2.8551994417       -3.4135788660       -2.5944957030
 H          1.7391428593       -2.0920001315       -2.2374258364
 C          3.7745716066       -1.6932348486       -1.6925491644
 H          4.6986353539       -2.2536925844       -1.5542248340
 H          3.8564004751       -1.0995278342       -2.6063595389
 H          3.0242379771       -3.1953591457        2.0528647333
 H          4.4514078280       -4.2247180479        1.9147559634
 H          5.4768851283       -2.5057329626        0.3757718791
 H          5.2345922596       -1.9997623349        2.0573873058
 O          3.7137861417       -0.2143994885        1.7529787757
 C          3.0043496765        0.9619824888        1.5849476330
 O          2.8306002050        1.6065789812        2.6384644857
 H          0.3032252952        0.9667454383       -1.2779682606
 C         -0.2828622500        1.4286189764       -0.4963452242
 C          0.3246612234        2.3379443126        0.3598805931
 C         -0.4410644490        2.9187741824        1.3628062761
 C         -1.7794910059        2.5934187551        1.5039897864
 C         -2.3779077041        1.6815856186        0.6528724067
 C         -1.6192444656        1.0938340030       -0.3509713069
 N         -2.2171242297        0.1426751553       -1.2076766141
 S         -2.6950188554       -1.2841446247       -0.4478946700
 O         -1.8959760522       -1.5448945752        0.7284187907
 O         -2.6777936791       -2.2986900999       -1.4789527792
 C         -4.3810529614       -0.9531251612        0.0177976786
 C         -4.7372083792       -0.9337669184        1.3518598414
 C         -6.0543179300       -0.6625876178        1.6892637369
 C         -6.9858772160       -0.4171165543        0.6920019431
 C         -6.6122123004       -0.4428647178       -0.6436085416
 C         -5.2976541840       -0.7141992046       -0.9876046330
 H         -4.9649740570       -0.7496271893       -2.0115192553
 H         -7.3396172514       -0.2520219033       -1.4160401761
 H         -8.0094071325       -0.2047562459        0.9576414475
 H         -6.3465291802       -0.6425693011        2.7268978176
 H         -3.9763996006       -1.1252300664        2.0918058715
 H         -1.6283112621       -0.0861868327       -1.9973581448
 H         -3.4176459554        1.4187628366        0.7615575721
 H         -2.3614028910        3.0507698393        2.2894591492
 H          0.0256648577        3.6118931592        2.0473751981
 C          1.7976422807        2.6277063871        0.2265811773
 H          2.1058725352        3.1978912841        1.1166635550
 C          2.1499184456        3.4638978068       -0.9964981256
 C          1.1796365618        3.7900712309       -2.0886906976
 C          1.6018288150        4.8547307896       -1.1245568122
 H          2.2566712344        5.6406327990       -1.4687325264
 H          0.8810237415        5.1703179812       -0.3851837733
 H          0.1740083679        3.4070770583       -2.0145859393
 H          1.5593966343        3.8202319441       -3.0986458787
 H          3.1807912950        3.3187911161       -1.3019627641
 O          2.4363120135        0.7462867544       -1.9922183741
