  62
        -98.94317847
 C         -0.7560336832       -1.8865023914        0.1499716008
 C         -1.4303834562       -1.1724201440        1.1652425132
 C         -2.6979574477       -0.5247231231        0.7854301141
 C         -3.1387145277       -0.6479485392       -0.4786013144
 C         -4.3604406174       -0.0174999500       -1.0881571500
 C         -4.0059574559        1.3291063752       -1.7433798867
 C         -4.1016722494        2.5377673128       -0.8147072132
 H         -3.7300558865        3.4018250712       -1.3704481591
 H         -5.1495059077        2.7254795137       -0.5687902544
 C         -3.2984450587        2.4122577339        0.4818271887
 H         -2.3233157859        1.9790498229        0.2491594481
 H         -3.1157355574        3.4196118249        0.8624639811
 C         -4.0186650570        1.5924560298        1.5629728338
 H         -4.0291409766        2.1600572459        2.4959694325
 H         -5.0602631424        1.4609374632        1.2698687301
 C         -3.3984640293        0.2255294567        1.8857686441
 H         -4.1734584876       -0.4236726851        2.3075983303
 H         -2.6382482656        0.3468183524        2.6642320257
 H         -2.9870695376        1.2605908330       -2.1355801619
 H         -4.6743572423        1.4960244045       -2.5909044886
 H         -4.7088075202       -0.7023210594       -1.8642347313
 H         -5.1458007118        0.1013005419       -0.3471097513
 O         -2.4670479009       -1.3615990421       -1.4237163791
 C         -1.2559924520       -1.9739152719       -1.1491536946
 O         -0.7416149997       -2.5587429587       -2.1217886521
 O         -0.9850840715       -1.0666459591        2.3409494790
 C          0.5931784707       -2.5028867285        0.4604812819
 C          1.6869663048       -1.8554627460       -0.3570078586
 C          2.8651957096       -2.5144646958       -0.6900123820
 C          3.8470018283       -1.8661321169       -1.4189766657
 C          3.6869238084       -0.5524034456       -1.8222442497
 C          2.5128627095        0.1156296323       -1.4938064584
 C          1.5349581540       -0.5376511861       -0.7614802994
 H          0.6189556744       -0.0162667951       -0.5362876648
 N          2.2907446067        1.4376585258       -1.8968703985
 S          1.2674644319        2.4441351297       -1.0483995565
 O         -0.1069823033        2.0564771275       -1.2436243914
 O          1.6202631631        3.7697604525       -1.5116250264
 C          1.7450056212        2.2597607978        0.6600557330
 C          0.8575440680        1.7501867640        1.5840083369
 C          1.2753224561        1.5729563252        2.8931525372
 C          2.5684360403        1.9143902682        3.2558002332
 C          3.4463534399        2.4407119342        2.3195710206
 C          3.0346391915        2.6126431774        1.0085819852
 H          3.6874684290        3.0234580534        0.2557982787
 H          4.4499413181        2.7102454472        2.6067200452
 H          2.8920954332        1.7696723948        4.2744456904
 H          0.5881613859        1.1489141886        3.6079546021
 H         -0.1407366062        1.4835695478        1.2743389051
 H          3.0784068019        1.9175951080       -2.3036350371
 H          4.4521079116       -0.0523379883       -2.3954523227
 H          4.7538785853       -2.3917054105       -1.6766038404
 H          3.0093441491       -3.5383093835       -0.3855412953
 H          0.7833441048       -2.2689963624        1.5197584921
 C          0.5517057238       -4.0093283007        0.2968158361
 C          1.3350252887       -4.8986730979        1.2145210598
 C         -0.1566736870       -4.8281852734        1.3331448793
 H         -0.7451114604       -5.6733719155        1.0091599555
 H         -0.5793113195       -4.2997924402        2.1753621371
 H          1.7724260249       -5.7988278702        0.8094997659
 H          1.9229305916       -4.4285763095        1.9883889851
 H          0.4405923144       -4.3097582355       -0.7389165703
