  62
        -98.93882467
 C          2.5822597987        0.1359683819       -0.4328512479
 C          2.2254177956        0.7870741007        0.7710634719
 C          1.7223909329        2.1664099408        0.6481904793
 C          1.6236142578        2.7255878292       -0.5698743050
 C          1.1889362954        4.1205804899       -0.9507013417
 C          0.0387391170        4.7637058857       -0.1701753605
 C         -1.1053786229        3.8103080578        0.2028921121
 H         -2.0522922960        4.2495611956       -0.1176342611
 H         -0.9956222750        2.8576198256       -0.3195202709
 C         -1.1920943506        3.5403315387        1.7060585007
 H         -2.1963580155        3.1776133605        1.9369177251
 H         -1.0454114857        4.4770868615        2.2491688056
 C         -0.2027007262        2.4968950892        2.2186674498
 H         -0.4357524958        1.5279962332        1.7674399576
 H         -0.3380621188        2.3965036552        3.2985604407
 C          1.2772586451        2.8058362359        1.9322881948
 H          1.4659566259        3.8768341728        1.9380692177
 H          1.8794734275        2.3423569556        2.7185911929
 H         -0.3482524872        5.5688502021       -0.7979658382
 H          0.4267787242        5.2301680836        0.7342491018
 H          0.9150885530        4.0505978127       -2.0068456700
 H          2.0674224861        4.7713935650       -0.8909895399
 O          1.9887782362        2.0607746844       -1.7060643651
 C          2.4399171970        0.7541687885       -1.6712493631
 O          2.6879231286        0.2629354671       -2.7944156576
 O          2.3308734000        0.2459849536        1.9030079046
 C          3.0130670126       -1.3189853144       -0.4026857432
 C          1.9270863447       -2.1477319396        0.2438382894
 C          2.1785285867       -3.2248987622        1.0827553157
 C          1.1273658530       -3.9252216075        1.6515055538
 C         -0.1843158958       -3.5574300695        1.4181076367
 C         -0.4460203259       -2.4765649914        0.5806384364
 C          0.6059830052       -1.8127733777       -0.0245268066
 H          0.3951774168       -0.9968980694       -0.7002657560
 N         -1.7626060771       -2.0264317864        0.3875882497
 S         -2.1445113507       -0.8411884518       -0.7376331335
 O         -1.9407355981       -1.3345818036       -2.0846179043
 O         -1.4714835485        0.3829591369       -0.3906671862
 C         -3.8879868189       -0.6779760646       -0.4074984884
 C         -4.7997337511       -1.3917075330       -1.1616406389
 C         -6.1497502577       -1.2726544408       -0.8703242165
 C         -6.5621655523       -0.4479428155        0.1654303651
 C         -5.6353849878        0.2644070621        0.9122407127
 C         -4.2845802153        0.1496307004        0.6255942933
 H         -3.5261834477        0.6879521034        1.1706390270
 H         -5.9594549882        0.9075091820        1.7144666997
 H         -7.6130529717       -0.3568268577        0.3901492871
 H         -6.8729963209       -1.8216557165       -1.4514709063
 H         -4.4335249935       -2.0109073913       -1.9647802555
 H         -2.4658787865       -2.7474987473        0.4530870105
 H         -0.9992022922       -4.0887743725        1.8844843931
 H          1.3351876304       -4.7639292516        2.2986099510
 H          3.1952958974       -3.5124363806        1.2958224990
 H          3.1068345228       -1.6319193211       -1.4541367849
 C          4.3595371398       -1.4658096934        0.2759140541
 C          5.3146160338       -2.5372348967       -0.1544574572
 C          5.5959461669       -1.1040518831       -0.4889538703
 H          6.3945577283       -0.5968252169        0.0310020224
 H          5.4651788875       -0.7794684606       -1.5114492090
 H          5.9261625200       -3.0146718117        0.5962479953
 H          5.0058143008       -3.1907054613       -0.9565539709
 H          4.3231058886       -1.1991401677        1.3257894262
