  62
        -98.94892098
 C         -2.2472235348       -0.8216850587        0.0771864621
 C         -1.5900701519       -0.0962276721       -0.9452949670
 C         -1.9654060163        1.3177728436       -1.0741050175
 C         -2.8537693225        1.8437403351       -0.2119587102
 C         -3.3311820369        3.2669094810       -0.2297248884
 C         -2.4801719473        4.1712240308        0.6708648043
 C         -0.9743406116        4.0390601815        0.4424156904
 H         -0.4821491881        4.7664824585        1.0928533583
 H         -0.6394723318        3.0510525169        0.7672531093
 C         -0.5253308071        4.2655569105       -1.0078158280
 H          0.3659133794        4.8967050549       -0.9993933558
 H         -1.2992623933        4.8009903686       -1.5601716004
 C         -0.1545899978        2.9813277932       -1.7521357443
 H          0.4031109957        3.2544775005       -2.6521980292
 H          0.5064797919        2.3840408359       -1.1189556157
 C         -1.3335542527        2.1020506512       -2.1893127407
 H         -2.0799057651        2.7141607170       -2.7011378873
 H         -0.9521233303        1.3603566228       -2.8972774341
 H         -2.6899315205        3.9208497004        1.7135945232
 H         -2.7851234531        5.2063457637        0.5025729153
 H         -3.3073851428        3.6347112588       -1.2539646033
 H         -4.3624773302        3.2836179865        0.1284295302
 O         -3.4168449804        1.1309730925        0.7987364724
 C         -3.1188379791       -0.2100754375        0.9752921813
 O         -3.6869742576       -0.7411487162        1.9537647164
 H         -0.3806376666       -0.9616766306        1.9084116913
 C          0.1923706474       -1.6687786706        1.3199931174
 C         -0.4670464168       -2.4915188679        0.4146967666
 C          0.2849478260       -3.3961966796       -0.3232990742
 C          1.6628267482       -3.4387619684       -0.1924097917
 C          2.3194031093       -2.5686256195        0.6591946326
 C          1.5714458178       -1.6834373611        1.4227867437
 N          2.2562945109       -0.7224387049        2.2273666751
 S          2.2791737604        0.7672600793        1.4236335627
 O          3.0283252037        1.6637923552        2.2794943584
 O          0.9406854281        1.2086159614        1.0955328377
 C          3.2096668537        0.3884283924       -0.0406157639
 C          2.5535465487       -0.0240633449       -1.1834630443
 C          3.3095154129       -0.3614790633       -2.2959766491
 C          4.6927154916       -0.2859156011       -2.2459370289
 C          5.3344090149        0.1291069287       -1.0882574010
 C          4.5873834086        0.4676350298        0.0278678139
 H          5.0370599287        0.7986206547        0.9495950684
 H          6.4103407747        0.1870325516       -1.0518058674
 H          5.2733242371       -0.5526430432       -3.1150325821
 H          2.8051551798       -0.6872743564       -3.1914030153
 H          1.4753976123       -0.0842982367       -1.1978727559
 H          1.8080030334       -0.5773439867        3.1232389330
 H          3.3941704238       -2.5596041912        0.7390571927
 H          2.2333956716       -4.1397917484       -0.7815025492
 H         -0.2079456832       -4.0549524569       -1.0193915814
 C         -1.9551241290       -2.3026771912        0.2598954527
 H         -2.4479809700       -2.5994003361        1.1972494714
 C         -2.5525879861       -3.0959864016       -0.8834470142
 C         -2.9641426606       -4.5222945970       -0.6786796882
 C         -4.0057894844       -3.4560545360       -0.8321874941
 H         -4.5786778939       -3.4190686410       -1.7464817126
 H         -4.5610745542       -3.1479901661        0.0421055503
 H         -2.8265176036       -5.2209456748       -1.4898798868
 H         -2.8182994042       -4.9489105470        0.3021234106
 H         -2.1422638772       -2.8115003368       -1.8455163199
 O         -0.7473819824       -0.6101942408       -1.7263349319
