  62
        -98.93807026
 C          2.5349490602        0.2906965287        0.0361355310
 C          2.3665763298       -0.7362395414        0.9902990208
 C          2.1984717998       -2.1089521113        0.4770933105
 C          2.2311107203       -2.3093746011       -0.8534588495
 C          2.0731124204       -3.6020344309       -1.6102895898
 C          0.6118629504       -4.0674108008       -1.6959152604
 C         -0.1692607400       -3.9771409009       -0.3878242307
 H         -0.1898101600       -2.9384617710       -0.0499283105
 H         -1.2048698800       -4.2555731208       -0.6020771811
 C          0.3315953895       -4.8840154112        0.7343553694
 H          0.3023827295       -5.9216845011        0.3936087592
 H         -0.3731992508       -4.7857421812        1.5642036991
 C          1.7346316793       -4.5892631414        1.2703170899
 H          2.5015877595       -4.9747672914        0.6039098201
 H          1.8413928789       -5.1317757316        2.2143387598
 C          2.0004980194       -3.1198558815        1.5802946902
 H          1.1833326392       -2.7298063715        2.1996130900
 H          2.8967125891       -3.0491614217        2.2088958806
 H          0.0993495807       -3.4389311206       -2.4281925105
 H          0.5993636904       -5.0962622407       -2.0609380106
 H          2.4378424108       -3.4153696408       -2.6229467697
 H          2.6988777602       -4.3720472911       -1.1688005397
 O          2.4018598507       -1.2857534809       -1.7390934693
 C          2.5177061107        0.0294979990       -1.3325411390
 O          2.6116108811        0.8520182291       -2.2645325189
 O          2.3529918994       -0.5196330116        2.2350194208
 C          2.6236788802        1.7303266286        0.5049774413
 C          1.4250864805        2.5036264289        0.0080990410
 C          1.4911059308        3.8156061389       -0.4421406687
 C          0.3453593010        4.4639994291       -0.8720312290
 C         -0.8804242091        3.8255429892       -0.8641087796
 C         -0.9564791694        2.5093078992       -0.4179592598
 C          0.1883709404        1.8713717990        0.0263555405
 H          0.1175555802        0.8556328889        0.3868932603
 N         -2.1751354594        1.8127458093       -0.4503025304
 S         -2.3946977199        0.4214699892        0.4699961293
 O         -2.1392759104        0.6961816889        1.8679988894
 O         -1.6490133998       -0.6595425608       -0.1224040306
 C         -4.1407899798        0.1686056294        0.2132407387
 C         -4.5568377495       -0.5872538104       -0.8658713916
 C         -5.9154965995       -0.7503969202       -1.0861994121
 C         -6.8305792597       -0.1560295803       -0.2301339323
 C         -6.3984356100        0.5976141995        0.8509954579
 C         -5.0412117901        0.7638514793        1.0770401984
 H         -4.6594608303        1.3299250991        1.9115381687
 H         -7.1119614802        1.0551114695        1.5171698278
 H         -7.8871782997       -0.2837044201       -0.4047261827
 H         -6.2542584792       -1.3392258100       -1.9232774823
 H         -3.8075515393       -1.0338347404       -1.4989327014
 H         -2.9876663394        2.4126373994       -0.4496763306
 H         -1.7692275189        4.3312131694       -1.2085836498
 H          0.4096493512        5.4837313592       -1.2202569988
 H          2.4385325608        4.3289636488       -0.4598800283
 H          2.5631841798        1.6838805985        1.6038138813
 C          3.9481928304        2.3506189886        0.1132576719
 C          4.5752738702        3.4050816484        0.9743135623
 C          5.1651126501        2.0287626283        0.9262834722
 H          6.1041819403        1.8841736983        0.4138373326
 H          5.0303619897        1.3828384582        1.7818808521
 H          5.1145458305        4.2082045884        0.4951730526
 H          4.0484802099        3.6972301583        1.8702984921
 H          4.0684706408        2.4240960988       -0.9616233981
