  62
        -98.94609306
 C          1.5619404685        1.3134027554        0.3977522382
 C          1.5363845725        0.3130914988       -0.6038960179
 C          2.4004702602       -0.8515857250       -0.3638696185
 C          3.1129167347       -0.9399189474        0.7736862313
 C          4.0038039357       -2.0833966513        1.1765852891
 C          5.4218746752       -2.0036748094        0.5949254351
 C          5.5276879885       -2.2969750664       -0.9022018555
 H          6.5883689418       -2.4187307913       -1.1306298664
 H          5.0375740498       -3.2460910080       -1.1217251415
 C          4.9520891787       -1.1966995643       -1.8048417454
 H          5.6530742272       -0.9875082992       -2.6160830585
 H          4.8443365217       -0.2735931465       -1.2306125818
 C          3.6079314708       -1.5410512327       -2.4467053790
 H          3.2780647934       -0.6795857702       -3.0331082671
 H          3.7334381165       -2.3838150512       -3.1302417690
 C          2.4985195500       -1.8869821000       -1.4446374474
 H          1.5468145577       -1.9050807300       -1.9819892754
 H          2.6765687180       -2.8736417981       -1.0167900334
 H          5.8292987478       -1.0113082733        0.8013676669
 H          6.0352604896       -2.7321428600        1.1300313868
 H          3.5445836648       -3.0289440362        0.8865614051
 H          4.0769523545       -2.0508511574        2.2656579590
 O          3.0834156064        0.0267670435        1.7279654677
 C          2.3299375794        1.1744925800        1.5588027312
 O          2.4208718728        1.9877975497        2.4988308988
 O          0.8379859125        0.3653170889       -1.6505939558
 C          0.7176679810        2.5767983442        0.3017334343
 C         -0.7189435539        2.1778847226        0.5337909488
 C         -1.2319577291        2.1529063431        1.8272655094
 C         -2.5118360189        1.6886853851        2.0710809908
 C         -3.2955985255        1.2106092970        1.0350559464
 C         -2.7840222246        1.2181773875       -0.2555019031
 C         -1.5177585561        1.7269951651       -0.5055761328
 H         -1.1314261636        1.7146130386       -1.5120441048
 N         -3.5382154688        0.6542935702       -1.3026183460
 S         -4.1416540935       -0.8800906517       -1.0023838378
 O         -4.1493376055       -1.5546979616       -2.2820475485
 O         -5.4263536760       -0.7647323162       -0.3558341707
 C         -2.9894328624       -1.6629948684        0.1190804404
 C         -3.4723722214       -2.2235145487        1.2845804859
 C         -2.5846130438       -2.8232591568        2.1629010360
 C         -1.2310432770       -2.8458355793        1.8655692140
 C         -0.7614089401       -2.2803247613        0.6905485315
 C         -1.6449780927       -1.6859664707       -0.1960127037
 H         -1.2861039718       -1.2335849006       -1.1073684095
 H          0.2930101520       -2.2828785792        0.4614337859
 H         -0.5349866915       -3.3024783208        2.5515026524
 H         -2.9484189673       -3.2639576385        3.0770397564
 H         -4.5308815483       -2.1718252085        1.4817930059
 H         -3.0542395028        0.6725656616       -2.1895544275
 H         -4.2857739179        0.8198674178        1.2068525985
 H         -2.8986095344        1.6836030737        3.0785978956
 H         -0.6059256782        2.4847505104        2.6434590569
 H          1.0344328703        3.2144797221        1.1368684932
 C          0.9414029258        3.3277618406       -0.9941878667
 C          0.4489298710        4.7378858886       -1.1118323335
 C          1.9191528385        4.4621791384       -1.0224686571
 H          2.5250070147        4.5982299476       -1.9059035214
 H          2.4299388613        4.7063487804       -0.1023263763
 H          0.0431658537        5.0666195573       -2.0563500850
 H         -0.0393705560        5.1678968280       -0.2503688116
 H          0.8930983224        2.7012581023       -1.8753470044
