  62
        -98.94491060
 C          1.8762464086        1.0879817880       -0.2004582371
 C          3.0189829050        1.1636104991        0.6411122899
 C          4.2453432258        0.5395946232        0.1362512401
 C          4.2454696072       -0.0384842506       -1.0781690019
 C          5.4218309144       -0.6934180328       -1.7493840160
 C          5.6506408925       -2.1510312504       -1.3266071321
 C          6.2057597734       -2.3390803136        0.0858643852
 H          6.5225659396       -3.3806167499        0.1692879508
 H          7.0933064940       -1.7182330774        0.2118962377
 C          5.2006613709       -2.0381443144        1.2066199480
 H          5.2382903990       -2.8348161406        1.9530794084
 H          4.1876265643       -2.0338005648        0.7970511936
 C          5.4437899863       -0.7188165097        1.9398412919
 H          6.3984109369       -0.7642968293        2.4686106814
 H          4.6525221156       -0.5901871935        2.6828152746
 C          5.4470445089        0.5176226839        1.0314658914
 H          5.4072170150        1.4078609410        1.6638210536
 H          6.3623797321        0.5482448483        0.4407553445
 H          6.3598293368       -2.5876328009       -2.0337018099
 H          4.7082858740       -2.6955181188       -1.4229429507
 H          6.3238005065       -0.1119473447       -1.5562623347
 H          5.2184508688       -0.6741997091       -2.8222857518
 O          3.1398460880       -0.0727403979       -1.8649057040
 C          1.9290292241        0.4611029488       -1.4452053329
 O          1.0121219587        0.3075940823       -2.2787135382
 O          3.0129916147        1.7378915061        1.7618739143
 C          0.6030745351        1.7238690384        0.3324005351
 C         -0.3384060544        0.6911789392        0.9043749490
 C         -0.6802095481        0.7028648603        2.2513431059
 C         -1.5684828378       -0.2276985546        2.7631528449
 C         -2.1337367811       -1.1868823620        1.9425314628
 C         -1.7918660777       -1.2100402517        0.5965372768
 C         -0.9076199256       -0.2729682317        0.0842646871
 H         -0.6437321040       -0.3000437156       -0.9625324789
 N         -2.3767310278       -2.1741304803       -0.2520346395
 S         -4.0516392973       -2.1213389173       -0.3287751859
 O         -4.5996187276       -2.7700689445        0.8360689786
 O         -4.4060050862       -2.7032264261       -1.6038006054
 C         -4.4353568852       -0.3798870093       -0.2941746222
 C         -4.1254586917        0.3737200592       -1.4088021406
 C         -4.3398495465        1.7415283029       -1.3734934378
 C         -4.8496757597        2.3303093935       -0.2264353571
 C         -5.1561764032        1.5595925358        0.8839715691
 C         -4.9455772467        0.1903888766        0.8540626817
 H         -5.1692965690       -0.4456186684        1.6945717679
 H         -5.5531222624        2.0209705758        1.7736688413
 H         -5.0093907188        3.3967328355       -0.1988970218
 H         -4.1033148297        2.3411160340       -2.2380871207
 H         -3.7315650923       -0.1174416750       -2.2845982628
 H         -1.9889996593       -2.1552562835       -1.1850534298
 H         -2.8330485508       -1.9162510867        2.3184378683
 H         -1.8236940534       -0.2057216113        3.8115194707
 H         -0.2357951897        1.4426987214        2.9008549866
 H          0.9336520319        2.3671901308        1.1586848229
 C         -0.1178108566        2.5847194158       -0.6876386726
 C         -1.0940158460        3.6134148305       -0.2047913356
 C          0.2181839174        4.0408488376       -0.7893037140
 H          0.2265987930        4.4995026748       -1.7666982632
 H          0.9743081694        4.4271949880       -0.1214023788
 H         -1.9919899475        3.7781842508       -0.7790722852
 H         -1.2295184944        3.7104204351        0.8614504790
 H         -0.3475339012        2.0623830363       -1.6068920318
