  62
        -98.94486546
 C         -1.8080028401       -1.3443426689        0.3350408399
 C         -1.6397460400       -0.1141027688       -0.3459239100
 C         -2.6208229498        0.9296505913       -0.0194450798
 C         -3.5703915799        0.6952277512        0.9039274302
 C         -4.6191097097        1.6710883113        1.3644330403
 C         -5.8624668298        1.7237192716        0.4661723904
 C         -5.6585626997        2.4085702417       -0.8857456895
 H         -6.6490130797        2.5671860419       -1.3170465195
 H         -5.2106588196        3.3905585116       -0.7304800894
 C         -4.8101785398        1.6042784518       -1.8805387497
 H         -4.7564061099        0.5629251817       -1.5546359898
 H         -5.2958344498        1.6077811219       -2.8590839896
 C         -3.3903577598        2.1352612216       -2.0775740296
 H         -2.8719722199        1.4722347517       -2.7749826697
 H         -3.4314202397        3.1300879117       -2.5268118795
 C         -2.5589904397        2.2135337714       -0.7900885296
 H         -2.8966100696        3.0462869213       -0.1739633095
 H         -1.5154485297        2.3779403213       -1.0668291696
 H         -6.2232980999        0.7047239316        0.3079553103
 H         -6.6362429697        2.2683485416        1.0121893905
 H         -4.9283622097        1.3470859412        2.3604852103
 H         -4.1837648396        2.6675674212        1.4427227105
 O         -3.6736639300       -0.4897723688        1.5628519600
 C         -2.8114081401       -1.5370647089        1.2864698599
 O         -3.0322337302       -2.5719164689        1.9475832697
 O         -0.7281695200        0.1096442712       -1.1834458500
 C         -0.8650192902       -2.5080487589        0.0753156097
 C          0.5209717998       -2.0963201891        0.5063259297
 C          0.7912514899       -1.9816500594        1.8676605797
 C          2.0290586399       -1.5549999995        2.3089046098
 C          3.0198885500       -1.2187442295        1.4021451298
 C          2.7538719799       -1.3146315793        0.0434024698
 C          1.5153841498       -1.7635481091       -0.3982137203
 H          1.3248731998       -1.8278629690       -1.4572573803
 N          3.7439539799       -0.9546369093       -0.8870525802
 S          4.6105368101        0.4500223106       -0.6154531400
 O          5.0784339001        0.8608853007       -1.9205136400
 O          5.6358571901        0.1975968303        0.3671346999
 C          3.4388935202        1.6324548706        0.0259287202
 C          2.4161663603        2.0518672908       -0.8008551898
 C          1.4913861904        2.9596093909       -0.3132128096
 C          1.5965660704        3.4222032307        0.9891903704
 C          2.6311002304        2.9933613805        1.8060824504
 C          3.5640292303        2.0910346004        1.3214889602
 H          4.3872210803        1.7381220502        1.9210560101
 H          2.7127032905        3.3578567303        2.8175007204
 H          0.8687837705        4.1229037207        1.3673191505
 H          0.6888492304        3.2953695810       -0.9501029996
 H          2.3533030002        1.6730088510       -1.8079977798
 H          3.4322912799       -1.0030863891       -1.8461195802
 H          3.9922867700       -0.8871517297        1.7275718198
 H          2.2263756500       -1.4796617397        3.3674455398
 H          0.0103247199       -2.2277204194        2.5744328197
 H         -1.1997128303       -3.3222521090        0.7320321496
 C         -0.9548482303       -2.9738194187       -1.3625677704
 C         -0.4238303405       -4.3241718987       -1.7363323606
 C         -1.9021990804       -4.0796141986       -1.7134410505
 H         -2.4312373904       -4.0262119784       -2.6532990605
 H         -2.4818724805       -4.5135680186       -0.9117048005
 H          0.0619822795       -4.4435485687       -2.6929097306
 H          0.0029325595       -4.9264626789       -0.9486460806
 H         -0.8504878502       -2.1687303286       -2.0798973303
