  62
        -98.94539089
 C          2.5496989766        0.3507299974        0.0872227366
 C          2.4697170828       -0.6043348716        1.1355600861
 C          2.3203113883       -2.0048190425        0.7352613319
 C          2.2947767289       -2.3214299078       -0.5714547931
 C          2.1099005602       -3.6989645674       -1.1460080072
 C          0.6355468774       -4.1162232404       -1.2461956535
 C         -0.0271046682       -4.4815379655        0.0830823021
 H         -0.9666037790       -4.9832680351       -0.1573260758
 H          0.5992618612       -5.1969438988        0.6177965102
 C         -0.3319523640       -3.2782055840        0.9864636513
 H         -0.3123021695       -2.3644213960        0.3862026381
 H         -1.3454992882       -3.3743568981        1.3842636410
 C          0.6103718246       -3.1248964116        2.1814084286
 H          0.4791743516       -3.9710022193        2.8600320485
 H          0.3361472462       -2.2135012911        2.7187918603
 C          2.0956460925       -3.0236555723        1.8114645060
 H          2.6477792647       -2.6989256981        2.6969438185
 H          2.4741321394       -3.9963127139        1.4985874004
 H          0.0745765912       -3.3032266851       -1.7158355290
 H          0.5843254257       -4.9846816531       -1.9076023089
 H          2.5330506824       -3.6787601292       -2.1526899757
 H          2.6597959925       -4.4282650937       -0.5503219378
 O          2.4466967371       -1.3901153989       -1.5461681210
 C          2.5090556452       -0.0361686313       -1.2522049510
 O          2.5450841210        0.6853444376       -2.2724546876
 O          2.5123433986       -0.2912236248        2.3553497372
 C          2.5185944564        1.8100060804        0.5199802320
 C          1.0621518383        2.2033886199        0.5996151480
 C          0.4658402101        2.5763877224        1.7979806490
 C         -0.9007916165        2.7881861729        1.8715661620
 C         -1.7037616934        2.5950066687        0.7606964344
 C         -1.1123674747        2.2299148376       -0.4407261740
 C          0.2593926433        2.0721920629       -0.5251753807
 H          0.7006603253        1.7748679969       -1.4654957548
 N         -1.9416091373        1.9010274449       -1.5520432501
 S         -2.2766154929        0.2412869033       -1.5247328973
 O         -1.1086448422       -0.5377575370       -1.1758341731
 O         -2.8838525043       -0.0613811031       -2.8030748556
 C         -3.4902258134        0.1339689321       -0.2301865895
 C         -3.1043467001       -0.2879373479        1.0265335995
 C         -4.0504124289       -0.3242831259        2.0390073352
 C         -5.3561240325        0.0627973508        1.7778860559
 C         -5.7271575272        0.4844775637        0.5095168609
 C         -4.7862208453        0.5236416223       -0.5069074357
 H         -5.0265612668        0.8391838127       -1.5085649394
 H         -6.7435339610        0.7839716514        0.3109228978
 H         -6.0888190572        0.0347761954        2.5688935847
 H         -3.7617127733       -0.6504866101        3.0252558361
 H         -2.0772654339       -0.5774527347        1.1853974581
 H         -1.4905630981        2.1026322631       -2.4356583447
 H         -2.7735666593        2.7148816112        0.8143705509
 H         -1.3485653440        3.0761706158        2.8100588985
 H          1.0776674369        2.6669915343        2.6833151647
 H          2.9293587961        1.8260593346        1.5385094568
 C          3.3225947279        2.7606221121       -0.3391190192
 C          3.7535019747        4.0717688146        0.2454264016
 C          4.7659006159        2.9981829937       -0.0150993714
 H          5.4600056841        3.1254577498       -0.8319697431
 H          5.1809393549        2.4709962092        0.8314315000
 H          3.7525264690        4.9429352852       -0.3912814587
 H          3.4844485983        4.2748195238        1.2707900458
 H          3.0478478125        2.7396074153       -1.3853400312
