  62
        -98.93419854
 C          2.5190135530        0.3054168046        0.5684530947
 C          2.1889682916       -0.3260455391       -0.6536369800
 C          1.9558667812       -1.7848833493       -0.6129681464
 C          2.0511648035       -2.4287463328        0.5637267550
 C          1.8474302003       -3.8920515620        0.8596603151
 C          0.3673190640       -4.2972764313        0.8844827986
 C         -0.4562253037       -3.7850027036       -0.2935606028
 H         -1.4913959169       -4.0978400461       -0.1297606809
 H         -0.4530717735       -2.6930728632       -0.2878383304
 C         -0.0227012295       -4.3043403013       -1.6630318585
 H         -0.0357172728       -5.3967296146       -1.6514394760
 H         -0.7731616084       -3.9700014583       -2.3834691467
 C          1.3473056198       -3.8362643391       -2.1624667104
 H          2.1527838043       -4.4172783426       -1.7205944699
 H          1.3825590076       -4.0267020039       -3.2390661957
 C          1.6149011677       -2.3472918974       -1.9712153240
 H          2.4428753888       -2.0507053624       -2.6263428514
 H          0.7488245592       -1.7747203609       -2.3232544956
 H         -0.0790717259       -3.8987325134        1.7993946688
 H          0.3118994424       -5.3871847319        0.9264383944
 H          2.3992078973       -4.4993980792        0.1481621126
 H          2.2727143112       -4.0696773725        1.8504311400
 O          2.3503163505       -1.7737357758        1.7247298612
 C          2.5529889849       -0.4096268329        1.7651033585
 O          2.7603341847        0.0462184461        2.9105504460
 H          0.1315462202        1.2115386376        0.8754565906
 C          0.2743025285        2.0190949964        0.1705714477
 C          1.5604185357        2.4885115393       -0.0721544869
 C          1.7222315428        3.5440726412       -0.9576875972
 C          0.6210395894        4.0978721256       -1.5908253098
 C         -0.6497458121        3.5995435432       -1.3783444263
 C         -0.8199978289        2.5325996474       -0.4999014168
 N         -2.0873226299        1.9489695468       -0.3280198641
 S         -2.3190997372        0.6123382371        0.6536494600
 O         -2.1835192185        0.9645773207        2.0533348694
 O         -1.4938532478       -0.4669165377        0.1765964026
 C         -4.0309963785        0.2750510240        0.2880011541
 C         -5.0176899426        0.7963665924        1.1031874279
 C         -6.3457395045        0.5526955533        0.7896898023
 C         -6.6632509658       -0.2031274944       -0.3287203271
 C         -5.6622044943       -0.7223059015       -1.1363067330
 C         -4.3327470544       -0.4818221290       -0.8279704158
 H         -3.5197807169       -0.8698174956       -1.4197060760
 H         -5.9118960806       -1.3128664314       -2.0029638088
 H         -7.6971971273       -0.3916463896       -0.5708426203
 H         -7.1257233672        0.9517753929        1.4178325325
 H         -4.7233646787        1.3674869974        1.9690386138
 H         -2.8622494440        2.5946416732       -0.3308614825
 H         -1.5019132633        4.0144285624       -1.8932722755
 H          0.7598165894        4.9219448337       -2.2742825051
 H          2.7084044565        3.9241054519       -1.1681819407
 C          2.6900232293        1.8122565436        0.6680799561
 H          2.5621020834        2.0359816894        1.7417178438
 C          4.0692656830        2.3244724208        0.2798742614
 C          5.2612134247        1.4154089277        0.2786770062
 C          4.7227660001        1.9463202411       -1.0140426806
 H          5.2975369894        2.6972252437       -1.5362311890
 H          4.1814067177        1.2754385362       -1.6615573708
 H          6.1994975123        1.8024060896        0.6473450345
 H          5.0952161420        0.3738502866        0.5144430084
 H          4.2426976976        3.3348113346        0.6376566109
 O          2.0920534279        0.2852548879       -1.7498590311
