  62
        -98.94619726
 C         -1.4380430604       -1.1242507508       -0.0436406598
 C         -2.3769660405       -0.7044780105        0.9356622299
 C         -3.1045945309        0.5356377291        0.6477536792
 C         -2.8409302111        1.2146369385       -0.4827958512
 C         -3.4740151815        2.5118411081       -0.9078948119
 C         -4.8270011614        2.3435304773       -1.6128645319
 C         -5.9896674313        1.9435946474       -0.7036314318
 H         -6.0381883716        2.6270165678        0.1446745079
 H         -6.9070754213        2.0760728968       -1.2806646219
 C         -5.9299447709        0.4951748977       -0.1983647010
 H         -6.9120768007        0.0301789573       -0.3099249707
 H         -5.2339295407       -0.0777848124       -0.8154710606
 C         -5.5247136409        0.3511183286        1.2687004691
 H         -5.4792631506       -0.7143014612        1.5082013997
 H         -6.2864358611        0.8065296287        1.9053873589
 C         -4.1650042611        0.9733599393        1.6120808489
 H         -4.2425205615        2.0602241992        1.6249563283
 H         -3.8720063411        0.6299932699        2.6070150791
 H         -5.0719339217        3.3002734069       -2.0799924625
 H         -4.7168733111        1.6042933769       -2.4097874815
 H         -3.5932560517        3.1636979785       -0.0419973223
 H         -2.7812569616        2.9848431479       -1.6077543622
 O         -1.9178451509        0.7931229183       -1.3860056809
 C         -1.2038730905       -0.3835938513       -1.2019156302
 O         -0.4134848604       -0.6306294316       -2.1341990101
 O         -2.5945426004       -1.3384983300        2.0008418202
 C         -0.6572027400       -2.3979369304        0.2442202409
 C          0.7448368499       -2.0063342897        0.6405552208
 C          1.0734824898       -1.8429373588        1.9826136107
 C          2.3277364296       -1.3923622182        2.3540113005
 C          3.2708870096       -1.0684803484        1.3945852404
 C          2.9440872997       -1.2134216993        0.0528692804
 C          1.7016155198       -1.7052895699       -0.3175932994
 H          1.4581144899       -1.7978389906       -1.3641730193
 N          3.8661078796       -0.8024869495       -0.9309350697
 S          4.4373576191        0.7631108308       -0.7429761306
 O          4.6683545190        1.2613635001       -2.0809308908
 O          5.5929625190        0.7435693016        0.1203282795
 C          3.1200286287        1.6698089508        0.0549918789
 C          3.3601380085        2.2862798715        1.2664225585
 C          2.3271129982        2.9642988615        1.8929788581
 C          1.0744794782        3.0119612608        1.3014366880
 C          0.8510827785        2.3927322100        0.0816892484
 C          1.8797503388        1.7136321700       -0.5505678912
 H          1.7146338090        1.2168714095       -1.4942192610
 H         -0.1233250415        2.4226795695       -0.3798507517
 H          0.2655501780        3.5314447708        1.7905039777
 H          2.4990714180        3.4477345621        2.8410759979
 H          4.3471910385        2.2176164321        1.6940598086
 H          3.5190256497       -0.9341671002       -1.8708984797
 H          4.2457068394       -0.6920306880        1.6599248402
 H          2.5699206495       -1.2787702576        3.3994263805
 H          0.3262785398       -2.0555601187        2.7335135408
 H         -1.1457897599       -2.8430633500        1.1207872811
 C         -0.7036561596       -3.3958516810       -0.8939298186
 C         -0.2879237991       -4.8119189307       -0.6337289178
 C         -1.7312502592       -4.4858569413       -0.8697694680
 H         -2.1837720491       -4.7878873020       -1.8025097279
 H         -2.4064371693       -4.5191087011       -0.0272465580
 H          0.2533833911       -5.3406068510       -1.4032731874
 H          0.0172787009       -5.0643037901        0.3704933024
 H         -0.4637555497       -2.9693506714       -1.8594556388
