  62
        -98.93550864
 C         -2.1605428969       -1.4799465954        0.3042259937
 C         -2.3502709379       -0.4919826859       -0.6885304494
 C         -3.0805462256        0.7266632493       -0.2840205304
 C         -3.4957449997        0.8550674447        0.9880779790
 C         -4.2195410170        2.0082533408        1.6344039339
 C         -3.6550164851        3.4069669669        1.3385218114
 C         -4.5748134191        4.2570788308        0.4612642060
 H         -5.6066600576        4.0942201487        0.7790951184
 H         -4.3428644899        5.3109348090        0.6301442066
 C         -4.4594500447        3.9935438002       -1.0388943117
 H         -5.2546566232        4.5547311250       -1.5352803698
 H         -3.5076691423        4.3884936097       -1.4016023898
 C         -4.5609002445        2.5251458921       -1.4581880801
 H         -5.3270768624        2.0118707883       -0.8791166126
 H         -4.8804634931        2.5004629736       -2.5022664005
 C         -3.2315408089        1.7621514131       -1.3659035768
 H         -2.3971795561        2.4672026177       -1.2842479319
 H         -3.0618791095        1.2133814894       -2.2979570549
 H         -3.5220902348        3.9235730921        2.2904821326
 H         -2.6694508626        3.3186751871        0.8814782735
 H         -5.2740768573        1.9658119565        1.3529464842
 H         -4.1727068460        1.8072525448        2.7068967501
 O         -3.3064005121       -0.1300783880        1.9111496401
 C         -2.6367732085       -1.2966834679        1.6060677282
 O         -2.5328271564       -2.0912802323        2.5614854047
 O         -1.9376441535       -0.5919547637       -1.8773841784
 C         -1.3736756417       -2.7647705219        0.0794093196
 C          0.0994112483       -2.4505531295        0.1874264034
 C          0.8578699618       -2.9140339384        1.2560421867
 C          2.1871731420       -2.5511675869        1.3880189610
 C          2.7814000899       -1.7039536937        0.4689336437
 C          2.0285738558       -1.2323524947       -0.5974409408
 C          0.7082065396       -1.6225955363       -0.7453792370
 H          0.1283780990       -1.2346359882       -1.5697684855
 N          2.6092950455       -0.3089239178       -1.5035394664
 S          2.7239894232        1.2450084982       -0.8533998917
 O          1.6664741415        1.4985916797        0.1012095785
 O          2.7956163052        2.1412934851       -1.9870389664
 C          4.2985132870        1.2212963586       -0.0237805555
 C          4.3471012757        1.2363847564        1.3561981449
 C          5.5833059381        1.2033940495        1.9827591187
 C          6.7417645729        1.1560731525        1.2221200943
 C          6.6755780519        1.1430927521       -0.1633378089
 C          5.4430791196        1.1755898368       -0.7958152305
 H          5.3436298132        1.1745239574       -1.8684076124
 H          7.5786493719        1.1074916925       -0.7509896251
 H          7.7018685356        1.1301087055        1.7128572393
 H          5.6362066727        1.2133146783        3.0595959978
 H          3.4192461600        1.2705837577        1.9048420568
 H          2.0819079459       -0.2451565969       -2.3649706832
 H          3.8113739981       -1.4032881708        0.5730876098
 H          2.7627495501       -2.9212919492        2.2226051453
 H          0.3890082780       -3.5429492878        1.9990057961
 H         -1.6397942726       -3.4249538572        0.9154971769
 C         -1.7120342762       -3.4723604234       -1.2167277175
 C         -1.3843580256       -4.9280687747       -1.3512399946
 C         -2.8119639963       -4.4889846252       -1.2291463286
 H         -3.4485562627       -4.5465301397       -2.0992172624
 H         -3.3270974037       -4.6788041057       -0.2986260518
 H         -1.0377990587       -5.2910572307       -2.3065189162
 H         -0.9318206635       -5.4186252396       -0.5028153351
 H         -1.6066005781       -2.8473412982       -2.0931448258
