  62
        -98.94702653
 C         -2.2846394545       -0.5138417597       -0.4739355211
 C         -1.4490462466        0.4091016314       -1.1470225964
 C         -1.7218601154        1.8322947766       -0.8974305474
 C         -2.7018700694        2.1825779426       -0.0469668551
 C         -3.0520899431        3.5913095830        0.3339230042
 C         -2.2840737806        4.0452262256        1.5824922350
 C         -0.7781273086        3.7878644395        1.5170321649
 H         -0.3391448226        4.1976497484        2.4299947280
 H         -0.5880023529        2.7114170222        1.5330425757
 C         -0.0789887747        4.4001740577        0.2953699064
 H         -0.7051038433        5.1793945343       -0.1421769797
 H          0.8478172930        4.8734045360        0.6268424930
 C          0.3014963495        3.3800586597       -0.7791215686
 H          1.0089418834        3.8524580650       -1.4663530058
 H          0.8118185483        2.5394887016       -0.3020974331
 C         -0.8627506438        2.8344151012       -1.6165675508
 H         -0.4382852488        2.3063689743       -2.4753140695
 H         -1.4687542303        3.6631942806       -1.9892306957
 H         -2.4646857575        5.1123855330        1.7275039939
 H         -2.6834235107        3.5121724212        2.4486322658
 H         -4.1225680353        3.6325921731        0.5437933264
 H         -2.8299145302        4.2528892217       -0.5012449684
 O         -3.4777324866        1.2720984316        0.5952163031
 C         -3.2807732549       -0.0840803547        0.4081565639
 O         -4.0589919857       -0.8062267357        1.0655508990
 O         -0.5176308740        0.0889694782       -1.9334711253
 C         -2.1402653768       -2.0252661885       -0.5845236746
 C         -1.1222816748       -2.5152466805        0.4186855635
 C         -1.4462221003       -3.4962730351        1.3475964332
 C         -0.5208482151       -3.8980087507        2.2947613128
 C          0.7264328885       -3.3041003763        2.3537024414
 C          1.0601854746       -2.3200221281        1.4285598121
 C          0.1501749493       -1.9624165189        0.4464103385
 H          0.4195235479       -1.2110664855       -0.2751308947
 N          2.3094005396       -1.6835422092        1.4769594932
 S          2.4449817494       -0.0123972276        1.3014683085
 O          3.3251349167        0.4019016826        2.3775555853
 O          1.1515961090        0.6218541018        1.2612587234
 C          3.3315470373        0.1636041415       -0.2341285928
 C          2.6630652965        0.3271195658       -1.4299057818
 C          3.4034552820        0.4348922112       -2.5982248881
 C          4.7870532871        0.3751899503       -2.5549905220
 C          5.4440013057        0.2095182150       -1.3447638090
 C          4.7117145026        0.1024515188       -0.1746559215
 H          5.1804396110       -0.0124553345        0.7887098105
 H          6.5206369021        0.1644419202       -1.3102520262
 H          5.3548605794        0.4594156038       -3.4683011576
 H          2.8859463322        0.5629459993       -3.5356271216
 H          1.5847996280        0.3706559488       -1.4531636699
 H          2.8966626885       -1.9962631350        2.2368865271
 H          1.4367181863       -3.5918693885        3.1145284003
 H         -0.7817367421       -4.6632471385        3.0102875785
 H         -2.4361391620       -3.9284236389        1.3384787823
 H         -3.1164163060       -2.4393085542       -0.2954903247
 C         -1.8083083114       -2.5162491543       -1.9794735977
 C         -2.1805473732       -3.9154760296       -2.3637426661
 C         -2.9185140386       -2.7533296526       -2.9564293822
 H         -2.7518989387       -2.5061488281       -3.9939067479
 H         -3.9280273917       -2.5645443958       -2.6202881029
 H         -1.5050445070       -4.4715399379       -2.9952639878
 H         -2.6931540379       -4.5184090248       -1.6294953075
 H         -0.8818726093       -2.1158490968       -2.3678041944
