  62
        -98.93535452
 C          2.2124660349        1.1109618071       -0.0192694971
 C          2.9202189768        0.4598042164        1.0215047706
 C          3.7793992970       -0.6816407721        0.6544306240
 C          3.8332731631       -1.0567625479       -0.6367053533
 C          4.6572353249       -2.1528142061       -1.2584119580
 C          6.1401532875       -1.7730475104       -1.4015962225
 C          6.7481310323       -1.0810740913       -0.1844062371
 H          7.7601142912       -0.7668301567       -0.4530347925
 H          6.1763991612       -0.1780702313        0.0370391196
 C          6.8450194854       -1.9415599852        1.0730247403
 H          7.3733770470       -1.3540012553        1.8281051468
 H          7.4497023761       -2.8250855660        0.8567531823
 C          5.5147200675       -2.3993894296        1.6746457063
 H          5.7259735000       -2.7848503800        2.6763957659
 H          5.0916415303       -3.2259781558        1.1100056610
 C          4.4773932122       -1.2938335412        1.8447969082
 H          3.6754002176       -1.6649368692        2.4946935868
 H          4.9281062752       -0.4589655193        2.3933896897
 H          6.7063708239       -2.6774347899       -1.6302860696
 H          6.2328666252       -1.0926721255       -2.2516457747
 H          4.5444087705       -3.0711599120       -0.6895797559
 H          4.2449918074       -2.3275676194       -2.2548542153
 O          3.1229701036       -0.4131811034       -1.6050476056
 C          2.2967636040        0.6663093774       -1.3379855201
 O          1.7164946919        1.1104252850       -2.3476610803
 O          2.8502692716        0.8282900461        2.2251974807
 C          1.3472422489        2.2937162879        0.3815745861
 C         -0.0711019691        1.8529252747        0.6382670673
 C         -0.7048056992        2.1313424768        1.8430223526
 C         -1.9997605112        1.6992958434        2.0732854678
 C         -2.6878464316        0.9851932533        1.1088280357
 C         -2.0607496575        0.6961757115       -0.0962822412
 C         -0.7636186598        1.1303360403       -0.3242441966
 H         -0.2794978984        0.9018474033       -1.2629092045
 N         -2.7521299683       -0.0283788985       -1.0865668067
 S         -3.3666128566       -1.5284865082       -0.6391630718
 O         -2.6011669076       -2.1111996424        0.4395916922
 O         -3.4411311582       -2.2945683952       -1.8641339126
 C         -5.0181566325       -1.1556355006       -0.0877235629
 C         -5.4151764099       -1.5025137719        1.1887358927
 C         -6.7074248395       -1.2036570364        1.5924238896
 C         -7.5743099234       -0.5675242475        0.7171189497
 C         -7.1603974822       -0.2278383907       -0.5624944402
 C         -5.8706183900       -0.5247755393       -0.9727603553
 H         -5.5096736980       -0.2826541943       -1.9584265766
 H         -7.8373254841        0.2667802536       -1.2402950969
 H         -8.5787468300       -0.3352554802        1.0340045949
 H         -7.0310401647       -1.4672838107        2.5865155299
 H         -4.7038505514       -1.9909868937        1.8356492427
 H         -2.2286935188       -0.1124586106       -1.9471597651
 H         -3.6955295630        0.6445981442        1.2824664549
 H         -2.4787735345        1.9205103492        3.0147282915
 H         -0.1687157251        2.6739502480        2.6077841001
 H          1.7664993824        2.6281062259        1.3436612464
 C          1.4459392853        3.4637235202       -0.5882976297
 C          0.3162448017        3.9281059092       -1.4533515426
 C          0.7412066057        4.7512303857       -0.2770396391
 H          1.2593390850        5.6817493381       -0.4518495478
 H          0.0894015432        4.7606730711        0.5835786149
 H          0.5598047475        4.2713098879       -2.4473170141
 H         -0.6243564883        3.4038070729       -1.3951384917
 H          2.4389436469        3.5450750691       -1.0191329265
