  62
        -98.93211650
 C         -1.5215510697       -1.2127171395        0.1421298605
 C         -2.6634831696       -0.9502445895        0.9421879506
 C         -3.4939961194        0.2166189808        0.5910505809
 C         -3.1116350092        0.9894580410       -0.4417218588
 C         -3.7970358390        2.2065207414       -1.0033924285
 C         -5.0310452190        1.8520390719       -1.8486264786
 C         -5.9440152693        0.7909796719       -1.2399602489
 H         -5.3701806794       -0.1220035883       -1.0704853592
 H         -6.7161568793        0.5553011522       -1.9772095890
 C         -6.6438623392        1.1989045616        0.0543370912
 H         -7.3292343693        0.3900477417        0.3205961810
 H         -7.2434452590        2.0933488018       -0.1291666985
 C         -5.7318772191        1.4619377911        1.2547669313
 H         -6.3675019391        1.4922565509        2.1445687413
 H         -5.2580311589        2.4371133710        1.1819921716
 C         -4.6827691893        0.3834166508        1.5062489110
 H         -5.1761578295       -0.5945853191        1.5439225707
 H         -4.2636126393        0.5311866604        2.5087787610
 H         -4.6829328291        1.4765139421       -2.8140876387
 H         -5.6002753488        2.7656375120       -2.0283342483
 H         -3.0713786989        2.7091664014       -1.6467997283
 H         -4.0606004688        2.8908116212       -0.2025001283
 O         -1.9979838093        0.7122268410       -1.1736683189
 C         -1.1897308095       -0.3870037092       -0.9320181092
 O         -0.2423609195       -0.4828381792       -1.7336433493
 O         -2.9901101198       -1.6729299297        1.9222428804
 C         -0.6748735999       -2.4164636798        0.5432422701
 C          0.7285115402       -1.9645910401        0.8555647603
 C          1.0407611502       -1.6555743306        2.1788028704
 C          2.2759343803       -1.1384466710        2.5226860605
 C          3.2309017104       -0.8948110009        1.5510952406
 C          2.9289760203       -1.1904012604        0.2296402605
 C          1.7000085202       -1.7408173200       -0.1083479797
 H          1.4944738702       -1.9343226097       -1.1464119897
 N          3.8630445004       -0.8909053103       -0.7804357094
 S          4.5336862807        0.6420252696       -0.7258224189
 O          4.8197960508        0.9901842299       -2.1004397288
 O          5.6737637607        0.6288347291        0.1590522011
 C          3.2784719009        1.7201293996       -0.0502515986
 C          3.6047537711        2.5430098092        1.0092232216
 C          2.6343185113        3.3795882993        1.5360404719
 C          1.3557326113        3.3758603597        1.0002269819
 C          1.0446069511        2.5446415101       -0.0642280684
 C          2.0120488009        1.7099431300       -0.6002891386
 H          1.7687409208        1.0507983703       -1.4189753688
 H          0.0493860411        2.5266140604       -0.4808581384
 H          0.5960514114        4.0206700297        1.4133473821
 H          2.8752822414        4.0266355390        2.3640176421
 H          4.6079883211        2.5053731889        1.4019104616
 H          3.5176761804       -1.0883374799       -1.7091999695
 H          4.1936082005       -0.4736942011        1.7922618407
 H          2.4944363904       -0.9108934413        3.5546803006
 H          0.2916120502       -1.8121878207        2.9419552003
 H         -1.1182688700       -2.7301281300        1.5005654800
 C         -0.8737964502       -3.6067190294       -0.3887109802
 C         -0.4626074102       -3.6717101991       -1.8285488802
 C          0.2315790997       -4.5264781995       -0.8118877805
 H          0.0363013494       -5.5884670795       -0.8205843008
 H          1.2399450797       -4.2685428698       -0.5277819304
 H         -1.1442897903       -4.1507952287       -2.5176229604
 H          0.0468618900       -2.8269514691       -2.2611343100
 H         -1.8263818803       -4.0838214493       -0.1722018304
