  62
        -98.94357366
 C         -1.1446140671       -1.6297034114       -0.6792899369
 C         -2.3735507225       -1.7078811296        0.0243113258
 C         -3.4213118383       -0.7597590757       -0.3711406209
 C         -3.1731640801        0.1112579196       -1.3655183279
 C         -4.1185982894        1.1822322437       -1.8256384083
 C         -3.8687694932        2.4964540871       -1.0731868460
 C         -3.7982727418        2.3369617018        0.4457300200
 H         -2.9018582786        1.7652316042        0.7001442436
 H         -3.6616033098        3.3349882342        0.8687486118
 C         -5.0319323406        1.6757775864        1.0767005713
 H         -5.3104106139        2.2400863154        1.9692451191
 H         -5.8732897456        1.7279478503        0.3845141272
 C         -4.8239983905        0.2245512394        1.5142502251
 H         -3.9203565406        0.1540890179        2.1255784286
 H         -5.6697926358       -0.0650160585        2.1437294633
 C         -4.7202011333       -0.8054545642        0.3825169757
 H         -4.7700001363       -1.8009191819        0.8335569201
 H         -5.5666286119       -0.6922169381       -0.2979442249
 H         -2.9166080007        2.9149730356       -1.4088003048
 H         -4.6623383155        3.2003440943       -1.3321406721
 H         -3.9589873789        1.3491548433       -2.8923971166
 H         -5.1429189955        0.8496958795       -1.6682393693
 O         -1.9997197336        0.1391612245       -2.0410522319
 C         -0.9397426015       -0.6986003025       -1.6991965075
 O          0.0767792255       -0.5109946488       -2.3893891609
 O         -2.5819292724       -2.5427437844        0.9469213096
 C         -0.0421378989       -2.5535922667       -0.1925971008
 C          0.6408525977       -1.9488037810        1.0099876346
 C          1.0142932797       -2.7295178912        2.0977997726
 C          1.6361038246       -2.1545823940        3.1922871950
 C          1.8900528925       -0.7954271900        3.2270265615
 C          1.5060261564       -0.0028225355        2.1498706864
 C          0.8990124848       -0.5863676804        1.0475387305
 H          0.5960994966        0.0354543835        0.2199506914
 N          1.7069660773        1.3791419814        2.1727057547
 S          1.6695590355        2.3242026898        0.8040864412
 O          2.2379007126        3.5828325891        1.2433284615
 O          0.3308026822        2.3963039158        0.2743741562
 C          2.7845098743        1.5587517331       -0.3573634963
 C          2.4189914182        1.4498109569       -1.6823175965
 C          3.3130223350        0.8879767913       -2.5800411809
 C          4.5503661047        0.4477590909       -2.1392338525
 C          4.9046371848        0.5664770520       -0.8036307889
 C          4.0166801918        1.1297905047        0.0974605758
 H          4.2665374040        1.2399563756        1.1401242788
 H          5.8668704305        0.2197439222       -0.4630028987
 H          5.2417508212        0.0069490411       -2.8399697930
 H          3.0265361672        0.7883069842       -3.6143515641
 H          1.4385250173        1.7769363362       -1.9887246438
 H          2.2702815061        1.7500760216        2.9211065147
 H          2.3632316933       -0.3447613045        4.0855403374
 H          1.9211829223       -2.7701695053        4.0316809398
 H          0.7943408693       -3.7867437024        2.0919502274
 H         -0.5587105081       -3.4646718399        0.1513910795
 C          0.9450285170       -2.9667439645       -1.2731964485
 C          2.3186287460       -2.3846009397       -1.3872580207
 C          2.1447913436       -3.8006820185       -0.9324088457
 H          2.4222513091       -4.5977476985       -1.6051652195
 H          2.3276852552       -4.0153132580        0.1090441771
 H          2.6991752310       -2.1918039338       -2.3778159101
 H          2.6163437296       -1.6432169725       -0.6617339980
 H          0.4432270393       -3.1955546116       -2.2073615198
