  62
        -98.94127725
 C          2.6629997713        0.3629648822       -0.3087875543
 C          2.2556958444        1.1622047654        0.7883829834
 C          1.6437757357        2.4581723873        0.4439108248
 C          1.4873023680        2.8022606231       -0.8456133986
 C          0.8643353709        4.0804145992       -1.3284590772
 C         -0.6432416548        3.9289714422       -1.5673210317
 C         -1.4008582907        3.2987085415       -0.3982566367
 H         -2.4618343959        3.3045165531       -0.6608192322
 H         -1.1071937588        2.2505219993       -0.3031695027
 C         -1.2056620574        4.0059084249        0.9496207363
 H         -0.8379151037        5.0205625708        0.7879044058
 H         -2.1765466746        4.0847301038        1.4432768049
 C         -0.2751918066        3.2731654724        1.9183570059
 H         -0.5703181518        2.2221408512        1.9793764131
 H         -0.4061678232        3.7097944429        2.9126573557
 C          1.2208661088        3.3401469858        1.5850031661
 H          1.5111517695        4.3769137093        1.3978700043
 H          1.7717610192        2.9800220246        2.4591441897
 H         -1.0567931757        4.9168942262       -1.7812476732
 H         -0.7931098757        3.2961201988       -2.4451255449
 H          1.0484148575        4.8632568983       -0.5946690013
 H          1.3442591798        4.3567173660       -2.2693601173
 O          1.8794558978        2.0050102480       -1.8731953013
 C          2.4440231408        0.7668431515       -1.6284858694
 O          2.7373950817        0.1259861057       -2.6598075813
 O          2.4014475664        0.8459609501        1.9972133300
 C          3.2476726755       -1.0358190367       -0.1728688868
 C          2.1480355092       -2.0492885648       -0.3761360552
 C          2.3480422991       -3.2029434330       -1.1253882265
 C          1.3075381150       -4.0894463190       -1.3417307301
 C          0.0412968373       -3.8239879828       -0.8516099070
 C         -0.1682417166       -2.6711032973       -0.1043885540
 C          0.8897446660       -1.8145893689        0.1564390090
 H          0.7107365367       -0.9308094339        0.7504541273
 N         -1.4395324294       -2.3258075544        0.3868866571
 S         -1.8300837777       -0.6791972375        0.2548834152
 O         -1.2782266693       -0.1466508070       -0.9695352098
 O         -1.4591776142       -0.0209489138        1.4808827003
 C         -3.6081955207       -0.7608997704        0.1423130629
 C         -4.3526238957       -0.8168118067        1.3053169630
 C         -5.7322447012       -0.9121713065        1.2128884330
 C         -6.3404958357       -0.9503760419       -0.0330549991
 C         -5.5802160947       -0.8909142770       -1.1915105783
 C         -4.2000340373       -0.7965143793       -1.1061607723
 H         -3.5678718702       -0.7362075790       -1.9778697657
 H         -6.0555078223       -0.9164017496       -2.1588280566
 H         -7.4142527210       -1.0236206034       -0.1023072352
 H         -6.3266515997       -0.9548149130        2.1111589520
 H         -3.8348634629       -0.7736170025        2.2493231613
 H         -2.1754588658       -2.9147792796        0.0203609233
 H         -0.7793861211       -4.4957787238       -1.0527971905
 H          1.4766906145       -4.9824418890       -1.9240842137
 H          3.3183645881       -3.3885975827       -1.5621604592
 H          3.9511400058       -1.1482604134       -1.0150866875
 C          4.0331223138       -1.2629734033        1.1091194287
 C          3.4919189413       -2.0419862211        2.2659997189
 C          4.5872513368       -2.6210550130        1.4250187171
 H          5.5804477957       -2.6849552137        1.8427688861
 H          4.3304017268       -3.4339595361        0.7633641673
 H          3.7214104846       -1.6869092558        3.2587473872
 H          2.4995907835       -2.4567342659        2.1745415523
 H          4.6598823456       -0.4123786563        1.3540511607
