  62
        -98.94385735
 C          1.3172000482        1.4084119916        0.6360753597
 C          2.0827145171        0.9834201577       -0.4783591732
 C          3.0706247220       -0.0736698496       -0.2129852678
 C          3.1855841097       -0.5815513374        1.0263373895
 C          4.1230319055       -1.6844686696        1.4218627097
 C          3.4478054710       -3.0585929026        1.3180863491
 C          2.7317723263       -3.3055251964       -0.0105218506
 H          2.3481773307       -4.3284783986        0.0159982785
 H          1.8581096850       -2.6519628150       -0.0819850279
 C          3.6136458156       -3.1259098585       -1.2541112564
 H          4.6663062833       -3.1881245080       -0.9740164515
 H          3.4110254755       -3.9492441718       -1.9425037473
 C          3.3683402690       -1.8300879212       -2.0297764828
 H          2.2953375500       -1.7108420848       -2.2045582967
 H          3.8522041961       -1.9219056947       -3.0061499998
 C          3.8968652747       -0.5476260062       -1.3745337972
 H          4.9393710137       -0.6858931498       -1.0803043603
 H          3.8515427029        0.2501916052       -2.1217113523
 H          4.2085073927       -3.8271594470        1.4700761999
 H          2.7105656130       -3.1461204826        2.1197416599
 H          5.0033012538       -1.6518235025        0.7827420796
 H          4.4298008816       -1.5195852790        2.4565139941
 O          2.4197156152       -0.1656603461        2.0669543227
 C          1.4432392129        0.8009275757        1.8869571046
 O          0.7580117852        1.0291550317        2.9051231752
 H         -0.6213403215        0.0055854715       -0.1196755425
 C         -1.0291582045        0.7263288688       -0.8105642265
 C         -0.6762048575        2.0627375467       -0.6801022299
 C         -1.1754549243        2.9698914125       -1.6049064049
 C         -1.9957931817        2.5354204764       -2.6328740124
 C         -2.3437046760        1.2027891817       -2.7572571709
 C         -1.8441491690        0.2861483726       -1.8381293078
 N         -2.1424730349       -1.0794440459       -1.9333926420
 S         -2.1427441486       -2.0583817511       -0.5842319149
 O         -0.7990506290       -2.2767688593       -0.1103023489
 O         -2.8618054913       -3.2405634040       -1.0094690478
 C         -3.1129072963       -1.1786230906        0.6276859811
 C         -4.4577072064       -1.0072339346        0.3593288186
 C         -5.2385347249       -0.2987510576        1.2569393919
 C         -4.6634092102        0.2303999293        2.4028566769
 C         -3.3148812746        0.0444740307        2.6623080528
 C         -2.5298656307       -0.6679502815        1.7688250846
 H         -1.4769270970       -0.8223707093        1.9498239104
 H         -2.8581544348        0.4536167781        3.5496728393
 H         -5.2682721435        0.7883594465        3.0999752265
 H         -6.2891800652       -0.1581330569        1.0608471865
 H         -4.8701298272       -1.4432961305       -0.5358653498
 H         -2.8474126219       -1.3326823670       -2.6082398856
 H         -2.9777368774        0.8692253968       -3.5641008483
 H         -2.3708813334        3.2487573574       -3.3510177637
 H         -0.9081825401        4.0115428092       -1.5372699946
 C          0.2030124887        2.4312794300        0.4918767860
 H         -0.4068228621        2.3065353067        1.4032489149
 C          0.6629465404        3.8821625676        0.4798458574
 C          2.0168889991        4.2747534509        0.9897457671
 C          1.7064606734        4.3827452050       -0.4714693341
 H          1.5824790859        5.3683563202       -0.8960766265
 H          2.1461688122        3.6647324833       -1.1448771955
 H          2.1022620081        5.1813958553        1.5701986444
 H          2.6791537765        3.4845757728        1.3138640639
 H         -0.1468749736        4.5659721776        0.7146082819
 O          1.9573718392        1.4520273350       -1.6390796694
