  62
        -98.94399025
 C         -2.2063143198       -1.2375333877       -0.1740480926
 C         -2.6167678864       -0.1341719860       -0.9599579536
 C         -3.9972438979        0.3238071971       -0.7445895438
 C         -4.7803512625       -0.3280571351        0.1341029587
 C         -6.1840659412        0.0662962785        0.4892414582
 C         -6.2031373301        1.0168985203        1.6944969273
 C         -5.2294566884        2.1892028418        1.5720368574
 H         -5.3522289345        2.8082444264        2.4634345518
 H         -4.2058568129        1.8074873492        1.5851175680
 C         -5.4298419094        3.0529996301        0.3189613933
 H         -5.3828349038        4.1050564605        0.6080790386
 H         -6.4218152086        2.8761406703       -0.0984607953
 C         -4.3769891957        2.8443569374       -0.7713976496
 H         -3.3769693182        2.9288027179       -0.3376864623
 H         -4.4834080778        3.6484735534       -1.5045625059
 C         -4.4598641220        1.5158222075       -1.5338284949
 H         -5.4762863772        1.3657406487       -1.9034299246
 H         -3.7873498759        1.5848963034       -2.3939755431
 H         -7.2188225977        1.3967288767        1.8190058146
 H         -5.9413464273        0.4469370360        2.5889489842
 H         -6.6513445017        0.5426076902       -0.3703374177
 H         -6.7424299381       -0.8368189537        0.7412580412
 O         -4.3592698699       -1.4043420144        0.8463079079
 C         -3.0610529806       -1.8721920366        0.7273624834
 O         -2.7925772965       -2.8426212368        1.4638359471
 O         -1.8733234407        0.4397943782       -1.7980794134
 C         -0.7872931998       -1.7668850149       -0.2903378319
 C          0.1851802450       -0.6613041498        0.0406624578
 C          0.0898136287       -0.0434120506        1.2853315835
 C          0.9421673023        0.9866728824        1.6324350709
 C          1.9121641899        1.4235474425        0.7467426660
 C          2.0229760467        0.8071986391       -0.4916936068
 C          1.1711324882       -0.2363387040       -0.8345032210
 H          1.2689963654       -0.6985661119       -1.8039374473
 N          3.0109896368        1.2376307193       -1.3908530303
 S          4.5485949911        1.5289344090       -0.8045737580
 O          4.5995996550        2.8286880023       -0.1828570508
 O          5.4271425388        1.3359668549       -1.9367826012
 C          4.8210308832        0.2617255799        0.4222513815
 C          5.0407629559        0.6121261104        1.7385084807
 C          5.2178992961       -0.3903290618        2.6788751720
 C          5.1685996113       -1.7192961664        2.2886400252
 C          4.9499343627       -2.0555464756        0.9612213663
 C          4.7736469378       -1.0576453257        0.0169600396
 H          4.6087603600       -1.2864406966       -1.0235313595
 H          4.9135071492       -3.0902869505        0.6603912675
 H          5.3018321146       -2.4987429555        3.0221905241
 H          5.3900517907       -0.1317889249        3.7112787818
 H          5.0696170758        1.6575274964        1.9994095895
 H          3.0289589701        0.7318093642       -2.2636019663
 H          2.5723409821        2.2395990960        0.9916859525
 H          0.8494355176        1.4592996365        2.5985642895
 H         -0.6726465567       -0.3805224510        1.9748534219
 H         -0.6915904419       -2.5464399147        0.4786711909
 C         -0.5682506068       -2.3958958990       -1.6499658494
 C          0.4928195666       -3.4388850209       -1.8299718837
 C         -0.9540587811       -3.8286415786       -1.8547754717
 H         -1.3973337818       -4.1130684214       -2.7973667292
 H         -1.3589545932       -4.3595216384       -1.0054896529
 H          1.0434695832       -3.4625901791       -2.7584424217
 H          1.0744144996       -3.7124490755       -0.9628655252
 H         -0.7583295143       -1.7080735992       -2.4660059080
