  62
        -98.93162923
 C         -2.3138702674       -1.0049205370        0.7985620801
 C         -3.1258965220       -0.6567927390       -0.3077638944
 C         -3.9243412944        0.5695721748       -0.1560408837
 C         -3.8348012522        1.2911988072        0.9751992960
 C         -4.6194106119        2.5291731653        1.3214437427
 C         -4.3572164087        3.7720327590        0.4491998144
 C         -5.3259802990        3.9337583927       -0.7287018680
 H         -5.5830546618        4.9901675686       -0.8293826013
 H         -6.2524896542        3.4071718010       -0.4966587449
 C         -4.8019523839        3.4700945592       -2.0912170990
 H         -4.1207119159        4.2262963621       -2.4879121572
 H         -5.6530694097        3.4052775350       -2.7725058213
 C         -4.0579654922        2.1344128220       -2.1010115809
 H         -3.0573744296        2.2663627586       -1.6820265978
 H         -3.9167849573        1.8297006846       -3.1399216994
 C         -4.7592974427        1.0021398554       -1.3259986774
 H         -4.8714877544        0.1266827059       -1.9686755356
 H         -5.7483639128        1.3164049479       -0.9959322479
 H         -3.3265116328        3.7577890626        0.0959074208
 H         -4.4644418982        4.6417571865        1.0993798936
 H         -4.3565686302        2.7585358390        2.3561412398
 H         -5.6840729451        2.2862555433        1.2940719540
 O         -3.0093798847        0.9401691875        2.0001121382
 C         -2.2234423266       -0.1959700422        1.9317075596
 O         -1.4941940834       -0.3761132459        2.9296310439
 O         -3.1996133376       -1.3340871120       -1.3650838737
 C         -1.4531737529       -2.2577604606        0.7710259509
 C         -0.3450087187       -2.0688120886       -0.2374567537
 C         -0.2405270423       -2.7930791410       -1.4161752847
 C          0.7987253319       -2.5443909572       -2.2973468224
 C          1.7508754086       -1.5807323115       -2.0227724946
 C          1.6601029278       -0.8555127475       -0.8405868520
 C          0.6186795866       -1.1055259264        0.0397117266
 H          0.5410176639       -0.5423907792        0.9622157998
 N          2.6221882049        0.1354092049       -0.5506033484
 S          4.2401172499       -0.3412184433       -0.6913573834
 O          4.5980890590       -0.3325933555       -2.0870876268
 O          4.4500814935       -1.5908349169        0.0062518930
 C          5.0736408274        0.9880081299        0.1525020108
 C          5.3700899459        0.8517283571        1.4954159016
 C          6.0052609272        1.8947503380        2.1508329641
 C          6.3288295333        3.0507488324        1.4563760443
 C          6.0244657494        3.1726169270        0.1086835971
 C          5.3902071241        2.1332083939       -0.5529670199
 H          5.1440599484        2.1785585496       -1.6009368244
 H          6.2805371641        4.0719308293       -0.4278038015
 H          6.8243636775        3.8602066663        1.9687215701
 H          6.2452177098        1.8014352784        3.1978376836
 H          5.1104560241       -0.0689499033        1.9934748021
 H          2.4633179846        0.5448495071        0.3609303742
 H          2.5679671293       -1.3877277609       -2.6987243048
 H          0.8680361626       -3.1110674949       -3.2137679292
 H         -0.9755155240       -3.5447400790       -1.6509566222
 H         -0.9882654171       -2.3228268342        1.7651706138
 C         -2.2888579346       -3.4988930373        0.5460770443
 C         -1.7361078314       -4.8385260807        0.9262240995
 C         -2.8416967272       -4.2275256077        1.7323739936
 H         -3.8306697309       -4.6543180347        1.6594363101
 H         -2.6062400926       -3.8376835072        2.7122194779
 H         -1.9655998138       -5.6882314763        0.3015561426
 H         -0.7469193508       -4.8650673278        1.3582906670
 H         -2.9159257004       -3.4353417003       -0.3344150293
