  62
        -98.94408094
 C         -1.7554208637       -1.2231594640        0.4222269824
 C         -1.8566709981       -0.3007809647       -0.6470139157
 C         -3.2211843148       -0.0181570603       -1.1183156325
 C         -4.2618591335       -0.6545225582       -0.5504353074
 C         -5.7035167488       -0.4231970152       -0.8976018866
 C         -6.3209424775        0.6623837213       -0.0050764596
 C         -5.4822202229        1.9373432975        0.0851905129
 H         -6.0295652823        2.6434670160        0.7134108916
 H         -4.5434722587        1.7131553520        0.5972427227
 C         -5.1738863976        2.5911421815       -1.2690274541
 H         -5.8645052813        2.2186053684       -2.0264421523
 H         -5.3367157276        3.6675922160       -1.1832844498
 C         -3.7362894194        2.3968805088       -1.7557362761
 H         -3.5678367151        3.0745625271       -2.5971900661
 H         -3.0376161308        2.6820748998       -0.9643969881
 C         -3.3753050877        0.9828135047       -2.2284552153
 H         -4.1098944915        0.6404136754       -2.9602815328
 H         -2.3991814925        1.0381217762       -2.7195958782
 H         -7.3128969028        0.9041339008       -0.3909040846
 H         -6.4374259286        0.2574392597        1.0028281095
 H         -5.7785117312       -0.1344405240       -1.9440213820
 H         -6.2475221990       -1.3571273442       -0.7471601815
 O         -4.1204788369       -1.5580235328        0.4527403311
 C         -2.8719599806       -1.8485063290        0.9774352424
 O         -2.8864114570       -2.6665940638        1.9192741527
 O         -0.8633213801        0.2563140786       -1.1833229691
 C         -0.3974317103       -1.5534531874        1.0160860325
 C          0.2314964503       -0.2995642300        1.5743629032
 C         -0.4929849575        0.4656471487        2.4856593341
 C          0.0470243902        1.6132847534        3.0315734437
 C          1.3182358339        2.0291578988        2.6729003990
 C          2.0501980284        1.2747818995        1.7662946440
 C          1.5095640828        0.1115858933        1.2333023994
 H          2.0976083210       -0.4675775346        0.5434636552
 N          3.3563348296        1.6463372027        1.3974856410
 S          3.7040229229        1.8190062376       -0.2389335896
 O          4.9266044926        2.5957778959       -0.2592936466
 O          2.5882301000        2.3814942414       -0.9620966903
 C          4.0654735167        0.1731073651       -0.8089071422
 C          5.1313079585       -0.4952445609       -0.2389622127
 C          5.4369721128       -1.7702671392       -0.6868036628
 C          4.6792077702       -2.3481982393       -1.6946905749
 C          3.6142963337       -1.6613815188       -2.2586141571
 C          3.3005754970       -0.3866836846       -1.8131675101
 H          2.4689187954        0.1758541036       -2.2088893847
 H          3.0223676723       -2.1136876923       -3.0386316703
 H          4.9172732773       -3.3411648338       -2.0430335427
 H          6.2620907131       -2.3097463158       -0.2505911727
 H          5.6980378113       -0.0064889070        0.5357097733
 H          3.7127329896        2.4442944360        1.9055323132
 H          1.7386992259        2.9312552518        3.0918463400
 H         -0.5271635439        2.1950101831        3.7373068560
 H         -1.4888015866        0.1438921772        2.7606795837
 H         -0.5950644210       -2.2340496675        1.8572311063
 C          0.4701354333       -2.2702341154        0.0033634947
 C          1.5526923189       -3.1963378047        0.4677639990
 C          0.3139324164       -3.7499855436       -0.1682294582
 H          0.3828214545       -4.1627089780       -1.1632676118
 H         -0.4091771945       -4.2484050582        0.4611675471
 H          2.4762915492       -3.2294598531       -0.0900568812
 H          1.6740213396       -3.3245275592        1.5326518595
 H          0.6469356996       -1.6795075152       -0.8879646373
