  62
        -98.94048342
 C          1.2501490273        1.5982818423        0.0056203638
 C          2.1905569588        1.1366037367        0.9521944595
 C          3.1177081128        0.0773663529        0.5085557696
 C          2.9920618095       -0.4098549333       -0.7401315670
 C          3.8464925847       -1.4516078311       -1.4132940231
 C          3.5534784328       -2.8915398801       -0.9542741211
 C          3.2208554488       -3.0433456425        0.5281649877
 H          2.4163184774       -2.3527540796        0.7883508778
 H          2.8451742037       -4.0575213869        0.6881585416
 C          4.4006768453       -2.8352366592        1.4745232950
 H          5.1527881656       -3.6037933063        1.2803361320
 H          4.0368701106       -2.9781348250        2.4954195629
 C          5.0810744392       -1.4695577567        1.3927964455
 H          5.6545130443       -1.3798489756        0.4743503797
 H          5.7996950932       -1.4134891811        2.2159746724
 C          4.1438377179       -0.2767668103        1.5575634075
 H          3.5848101341       -0.3906362511        2.4936624109
 H          4.7524035288        0.6257116717        1.6949922074
 H          2.7000468610       -3.2586516753       -1.5265546468
 H          4.4142504832       -3.5157666736       -1.1994939351
 H          3.6406997300       -1.3785151462       -2.4831660954
 H          4.8940673019       -1.2016235243       -1.2653403997
 O          2.0124638532        0.0083115803       -1.5906172313
 C          1.1341471723        1.0243859771       -1.2602194892
 O          0.3214277126        1.3187711086       -2.1542906514
 O          2.2661613071        1.5958987025        2.1255841999
 C          0.3394520223        2.7559920131        0.3728538342
 C         -1.1047944034        2.3310885262        0.2941103541
 C         -2.0672706001        3.0071469846       -0.4428310331
 C         -3.3732754451        2.5478314557       -0.4815365067
 C         -3.7495886051        1.4167123659        0.2183178188
 C         -2.7951282845        0.7370675219        0.9651736565
 C         -1.4878961455        1.1948634295        0.9979811678
 H         -0.7443175853        0.6614798451        1.5778935897
 N         -3.1717191180       -0.4213864891        1.6810649227
 S         -3.6682706351       -1.7296092006        0.7584893235
 O         -4.8901526847       -1.3841056618        0.0793849231
 O         -3.7376403529       -2.8437740780        1.6762751977
 C         -2.3528373196       -1.9836685441       -0.4166884366
 C         -2.3199843846       -1.2264398797       -1.5705757327
 C         -1.2537644383       -1.3804462551       -2.4417789838
 C         -0.2459518627       -2.2844751735       -2.1451592451
 C         -0.2949433659       -3.0393079139       -0.9833345488
 C         -1.3535971379       -2.8832648492       -0.1042770558
 H         -1.4301945736       -3.4506185035        0.8096856678
 H          0.4879829991       -3.7446776749       -0.7550401559
 H          0.5847389136       -2.3915924260       -2.8249712150
 H         -1.2007632354       -0.7795795531       -3.3347773715
 H         -3.1210369233       -0.5340620490       -1.7714574349
 H         -2.4603471893       -0.7313737791        2.3287066050
 H         -4.7582012686        1.0378782390        0.1865343001
 H         -4.1090990346        3.0803389040       -1.0648792882
 H         -1.7956235389        3.8909202203       -0.9956897227
 H          0.5692353123        2.9865219867        1.4238167441
 C          0.6683290994        3.9674775821       -0.4738875952
 C          0.3895357324        5.3462594275        0.0430546792
 C          1.8015476231        4.8550386991       -0.0582029806
 H          2.4403274692        5.2693209520       -0.8237451335
 H          2.3229840272        4.6004578594        0.8530973433
 H          0.0599783789        6.1022186918       -0.6535264316
 H         -0.0476746812        5.4323988581        1.0262578241
 H          0.5442350291        3.7817948678       -1.5347552858
