  62
        -98.94387831
 C         -1.8947397601       -1.4171745805        0.4644952311
 C         -2.5918706596       -0.7941549772       -0.6003805046
 C         -3.3726412108        0.3974391728       -0.2377389453
 C         -3.3575511477        0.8557647092        1.0262177287
 C         -4.1142125322        2.0467308162        1.5488085345
 C         -3.4148257376        3.3906002071        1.3028014271
 C         -3.4351962583        3.8816623171       -0.1453047020
 H         -4.4597119632        3.8632969483       -0.5181929119
 H         -3.1129642176        4.9248237107       -0.1328786265
 C         -2.5233434830        3.0945791733       -1.0968314438
 H         -1.9643333276        3.7936360256       -1.7221539358
 H         -1.7944282639        2.5233248990       -0.5181535538
 C         -3.2559387515        2.1402999530       -2.0392034115
 H         -2.5095036376        1.6075919127       -2.6334864897
 H         -3.8882410652        2.7111927552       -2.7228755327
 C         -4.1268231822        1.0970275772       -1.3284765791
 H         -5.0248175211        1.5663647774       -0.9268812981
 H         -4.4240575879        0.3433070002       -2.0617104662
 H         -3.9171010874        4.1363971266        1.9233647581
 H         -2.3817283764        3.3138203600        1.6493458256
 H         -5.1116681687        2.0686036391        1.1087766032
 H         -4.2142109822        1.9024724520        2.6268716432
 O         -2.6369189496        0.2548314844        2.0111283691
 C         -1.8878055383       -0.8791277225        1.7540169832
 O         -1.2651502049       -1.3140024146        2.7456660919
 H          1.1121831137       -1.9033637313        1.5990815740
 C          1.2889708112       -1.8622154784        0.5320985984
 C          0.2714842869       -2.2429299120       -0.3338372017
 C          0.4923084178       -2.1529734085       -1.7027419610
 C          1.7107746843       -1.7063990601       -2.1845264559
 C          2.7277287607       -1.3414755516       -1.3200899418
 C          2.5099917894       -1.4143441300        0.0500485509
 N          3.5296086457       -1.0391448086        0.9424606174
 S          4.3800835582        0.3645298717        0.6258571466
 O          5.3845019379        0.1037304862       -0.3748231913
 O          4.8710333524        0.8082064069        1.9112123783
 C          3.1815597621        1.5214450018       -0.0131089120
 C          3.3212088097        2.0243560128       -1.2904028266
 C          2.3748371808        2.9175513163       -1.7666094978
 C          1.3106644343        3.2901424016       -0.9609153074
 C          1.1845123060        2.7759770089        0.3204442762
 C          2.1261414807        1.8814916356        0.8013065814
 H          2.0545542338        1.4686497894        1.7954573836
 H          0.3559172294        3.0668965362        0.9469729001
 H          0.5741571209        3.9861561658       -1.3295505763
 H          2.4692316402        3.3193693545       -2.7624295449
 H          4.1660480693        1.7106308151       -1.8815718731
 H          3.2574008491       -1.0887769602        1.9132968019
 H          3.6852972146       -1.0054755624       -1.6833418650
 H          1.8722235062       -1.6424610644       -3.2497441572
 H         -0.3001830493       -2.4114507067       -2.3857085516
 C         -1.0496563499       -2.6669812317        0.2612162984
 H         -0.8483318335       -3.0560492546        1.2686352859
 C         -1.7551768078       -3.7442448828       -0.5340257750
 C         -1.2021344341       -5.1364084752       -0.5116239160
 C         -2.4867341004       -4.8285087573        0.1959623686
 H         -3.4097946642       -5.1994081447       -0.2237200816
 H         -2.4806272488       -4.7999313895        1.2761963887
 H         -0.3224999074       -5.3142375036        0.0889727105
 H         -1.2408950686       -5.7218382742       -1.4172727393
 H         -2.1951122463       -3.3889174106       -1.4557924462
 O         -2.5859605357       -1.1991627609       -1.7905312570
