  62
        -98.94489836
 C         -2.0925756103       -1.3904839491        0.1142915404
 C         -2.0417064499       -0.5385109895       -1.0154004099
 C         -2.8788520195        0.6692509908       -0.9477724603
 C         -3.6336783495        0.8973396614        0.1415329696
 C         -4.4770324592        2.1182411217        0.3642710291
 C         -3.6855850089        3.2150995917        1.0906711589
 C         -2.3141106587        3.4995464711        0.4776925889
 H         -1.8676931685        4.3136124011        1.0523054387
 H         -1.6759906090        2.6225194809        0.6082752593
 C         -2.3503670184        3.8847584206       -1.0080340912
 H         -3.3580517883        4.1959090809       -1.2859023114
 H         -1.6954747681        4.7446707604       -1.1654764314
 C         -1.8821275287        2.7837793002       -1.9618301508
 H         -1.7368366185        3.2285353199       -2.9501175009
 H         -0.9164222489        2.3933427200       -1.6310359306
 C         -2.8414228591        1.5989275505       -2.1282918006
 H         -2.4873606892        0.9998774501       -2.9723672303
 H         -3.8430181490        1.9636952307       -2.3643113708
 H         -4.2839178886        4.1280543019        1.0904872886
 H         -3.5384418091        2.9052739119        2.1277547590
 H         -5.3354324493        1.8360462822        0.9761807291
 H         -4.8344878589        2.4874243016       -0.5950641710
 O         -3.6739603499        0.0481979417        1.1987428198
 C         -2.9074445303       -1.1024217385        1.2151657402
 O         -3.0387629706       -1.7865785682        2.2494407804
 O         -1.3428871599       -0.7512841800       -2.0428750597
 C         -1.2831426007       -2.6749884694        0.2225860208
 C          0.1613950593       -2.3666636997        0.5385002609
 C          0.6730364691       -2.6109060795        1.8081260210
 C          1.9936587392       -2.3216635899        2.1035711911
 C          2.8284903595       -1.7781018504        1.1435741810
 C          2.3208018297       -1.5100582406       -0.1213502492
 C          0.9983326996       -1.8101911703       -0.4182414992
 H          0.6052110798       -1.5857959705       -1.3981131193
 N          3.1482496500       -0.9481317312       -1.1095541592
 S          4.1303987204        0.3473390386       -0.7226170095
 O          4.4938308707        0.9365318881       -1.9908286397
 O          5.2217042201       -0.1105046515        0.1008825807
 C          3.1039260806        1.4723337292        0.2050502300
 C          3.1790219905        1.4964152696        1.5829560400
 C          2.3438196407        2.3513904601        2.2844556997
 C          1.4586420811        3.1686418201        1.5993867294
 C          1.4026945412        3.1410389498        0.2141843394
 C          2.2258231910        2.2790462293       -0.4915321803
 H          2.2130264311        2.2320982090       -1.5689580403
 H          0.7197340515        3.7856562698       -0.3152032109
 H          0.8101974312        3.8344778205        2.1467011691
 H          2.3875152506        2.3782141104        3.3614008497
 H          3.8923860503        0.8598575495        2.0792916503
 H          2.6690021101       -0.7840793413       -1.9830960493
 H          3.8633267695       -1.5616944707        1.3529569510
 H          2.3792599690       -2.5252932597        3.0909781112
 H          0.0227367689       -3.0228020791        2.5664649811
 H         -1.7035537810       -3.2141158590        1.0816396010
 C         -1.4158096809       -3.5577391897       -1.0032108489
 C         -1.0752256414       -5.0118788898       -0.8887057284
 C         -2.5034810912       -4.5863494593       -1.0478123887
 H         -2.9977813612       -4.7733670994       -1.9894104187
 H         -3.1570570013       -4.6607473389       -0.1905811087
 H         -0.5859530115       -5.4939709002       -1.7211462583
 H         -0.7602181016       -5.3767077896        0.0773323717
 H         -1.1745460107       -3.0552404500       -1.9302530890
