  62
        -98.94004403
 C         -2.6637868193       -1.1237010614        0.2553661096
 C         -2.5456181597       -0.2790121752       -0.8765441405
 C         -3.3444306361        0.9567604392       -0.8393387572
 C         -4.1214948024        1.2145513403        0.2272219369
 C         -4.9316849086        2.4632197258        0.4184839993
 C         -4.1270289604        3.5345302674        1.1683001302
 C         -2.7260029002        3.7662473628        0.6014097075
 H         -2.2641332022        4.5603340732        1.1924023108
 H         -2.1262689144        2.8651454163        0.7517886960
 C         -2.6968227801        4.1509749689       -0.8845055871
 H         -2.0001822713        4.9814428465       -1.0164861207
 H         -3.6817406171        4.5019444893       -1.1945376721
 C         -2.2394184845        3.0318701100       -1.8221648354
 H         -2.0479993553        3.4697737730       -2.8052474218
 H         -1.2964162277        2.6121138968       -1.4620174346
 C         -3.2333196742        1.8803210521       -2.0195884000
 H         -4.2121326059        2.2798634203       -2.2918949458
 H         -2.8680685612        1.2661303780       -2.8477415758
 H         -4.6899342131        4.4693124503        1.1444235014
 H         -4.0269072400        3.2252094020        2.2115141268
 H         -5.8187939850        2.2129674811        1.0027337894
 H         -5.2430570532        2.8409555382       -0.5533414833
 O         -4.2105802815        0.3796993391        1.2950181108
 C         -3.4654371749       -0.7875793852        1.3484055570
 O         -3.5953916413       -1.4282396305        2.4115148697
 O         -1.8134237853       -0.5266286799       -1.8676134925
 C         -1.8469005758       -2.3987796673        0.3803803939
 C         -0.4172991159       -2.1252203962       -0.0227335405
 C          0.2680765892       -2.8458696757       -0.9907150999
 C          1.5786352618       -2.5270792545       -1.3025469823
 C          2.2307603122       -1.4881571851       -0.6653655191
 C          1.5578245366       -0.7654450125        0.3115355108
 C          0.2510430093       -1.0972709032        0.6324368751
 H         -0.2737462173       -0.5332538045        1.3956331212
 N          2.1985312440        0.3094931415        0.9500707503
 S          3.7605395706        0.1060260058        1.5246140717
 O          4.0141725346       -1.2661418628        1.8986593758
 O          3.9057527990        1.0937810501        2.5718976280
 C          4.7884673431        0.5671112803        0.1463001534
 C          5.7733115297       -0.2929227197       -0.2982768670
 C          6.5682275304        0.0938231472       -1.3661914704
 C          6.3658037448        1.3271169184       -1.9662584349
 C          5.3738902963        2.1803620383       -1.5059287149
 C          4.5767970886        1.8003994736       -0.4381300707
 H          3.7973821972        2.4346690168       -0.0496698042
 H          5.2185179034        3.1384038999       -1.9754110017
 H          6.9844161656        1.6255724559       -2.7978364690
 H          7.3400064665       -0.5677007124       -1.7254735674
 H          5.8905507860       -1.2445111829        0.1953678703
 H          1.6234958098        0.7857283688        1.6291658634
 H          3.2471190029       -1.2310470523       -0.9150877640
 H          2.0969385188       -3.0909600662       -2.0631114539
 H         -0.2292728229       -3.6422798172       -1.5189732677
 H         -1.8482757736       -2.6309164200        1.4590898363
 C         -2.4545202885       -3.6058457842       -0.3185325929
 C         -3.9304736840       -3.6947683806       -0.5651170047
 C         -2.9866048239       -3.5381382355       -1.7173061901
 H         -2.8285765706       -4.3871494956       -2.3663220719
 H         -2.9397297363       -2.5864654239       -2.2216690875
 H         -4.4167463421       -4.6478561084       -0.4199349595
 H         -4.5382625146       -2.8480838668       -0.2798531691
 H         -1.9636735191       -4.5295436138       -0.0271396230
