  62
        -98.93491222
 C         -1.4986113632       -0.6103544349        0.9717260212
 C         -2.7437569855       -1.0478617805        0.4617753036
 C         -3.7979895381       -0.0220034484        0.3469952417
 C         -3.5314330635        1.2495890123        0.6878231954
 C         -4.4556488380        2.4417456263        0.6799420880
 C         -5.4013607530        2.6009226813       -0.5181184624
 C         -4.8395904118        2.1060296222       -1.8589349455
 H         -4.9586690466        2.8933139075       -2.6056637115
 H         -3.7711030279        1.9038448217       -1.7660913390
 C         -5.5509960456        0.8546567481       -2.3791160361
 H         -6.6262462490        0.9747063917       -2.2290562600
 H         -5.3786067267        0.7740815105       -3.4551295543
 C         -5.1021331952       -0.4631495163       -1.7490984154
 H         -4.0894083561       -0.7071487954       -2.0813116713
 H         -5.7590729361       -1.2540807146       -2.1191333811
 C         -5.1088070128       -0.4965649531       -0.2120779456
 H         -5.9459548944        0.0679783884        0.1910598054
 H         -5.2099963526       -1.5396081158        0.0996933931
 H         -6.3388290627        2.0854180351       -0.3142990930
 H         -5.6384711714        3.6636415735       -0.5927854342
 H         -5.0463900473        2.4190342141        1.6004262042
 H         -3.7964272617        3.3107761782        0.7430560415
 O         -2.3064169769        1.6340200907        1.1467894818
 C         -1.2715060715        0.7297835148        1.2968374131
 O         -0.2135313053        1.2305999903        1.7264068487
 H          1.9138842900       -0.3242964782        0.2911979341
 C          1.5326554219       -1.0109650437       -0.4490169615
 C          0.3805257782       -1.7347358364       -0.1752363523
 C         -0.1207412116       -2.5928155920       -1.1481275452
 C          0.5315957316       -2.7259805134       -2.3602758125
 C          1.6952153755       -2.0232476565       -2.6198697788
 C          2.1978720658       -1.1544832782       -1.6578232639
 N          3.3564427849       -0.4059550490       -1.9016988922
 S          4.4180532588       -0.0343458842       -0.6653611454
 O          5.6557504844        0.2842316062       -1.3456445845
 O          4.4903723217       -1.0956892021        0.3117545016
 C          3.7600716399        1.4486932766        0.0638984426
 C          3.4668587264        2.5108902249       -0.7675741347
 C          2.9683524976        3.6768738934       -0.2105033437
 C          2.7742980170        3.7608259946        1.1598517279
 C          3.0776459925        2.6871071923        1.9812364479
 C          3.5771285153        1.5185879319        1.4299507507
 H          3.8172023497        0.6565907583        2.0329256529
 H          2.9180507209        2.7512818184        3.0454412382
 H          2.3795010558        4.6669205387        1.5916997702
 H          2.7281915300        4.5150796850       -0.8449518763
 H          3.6308574559        2.4080251880       -1.8275017834
 H          3.8314057427       -0.6131743465       -2.7676392117
 H          2.2083622796       -2.1390214104       -3.5625712144
 H          0.1340421118       -3.3924670378       -3.1109420362
 H         -1.0349263958       -3.1318617986       -0.9562711553
 C         -0.3067588970       -1.5373426631        1.1545043260
 H          0.3919117541       -0.9949143286        1.8061803573
 C         -0.6551256180       -2.8519303902        1.8220415251
 C          0.4557163911       -3.6838673621        2.3864858484
 C         -0.4977305999       -2.9821813177        3.3056437204
 H         -1.2189166994       -3.5732933210        3.8499580602
 H         -0.1401922048       -2.1200904365        3.8502001969
 H          1.4610951137       -3.2972278693        2.3022970430
 H          0.3910200068       -4.7577046997        2.3002136323
 H         -1.4902975037       -3.3659927143        1.3662960749
 O         -2.9961448242       -2.2339964820        0.1246643309
