  62
        -98.94969465
 C         -0.8254903403       -1.7797110249       -0.1457582721
 C         -1.9968309253       -1.6325951433        0.6321068242
 C         -2.9839527380       -0.6663588312        0.1329275736
 C         -2.7304358292        0.0030854007       -1.0063591477
 C         -3.6542425069        1.0097342223       -1.6300566396
 C         -3.3656852017        2.4399531007       -1.1534606191
 C         -3.2200102812        2.5764150945        0.3624664772
 H         -2.3280405413        2.0414032743        0.7010515277
 H         -3.0473661679        3.6338868994        0.5783128348
 C         -4.4355849301        2.0865249591        1.1615555105
 H         -4.6512246105        2.8148771981        1.9462109681
 H         -5.3113979426        2.0381132049        0.5127470997
 C         -4.2394412385        0.7356591377        1.8521827000
 H         -5.0474901523        0.6038425343        2.5770848307
 H         -3.2982808303        0.7468241007        2.4092643879
 C         -4.2443138635       -0.4914988312        0.9315269322
 H         -4.3232899792       -1.3812808629        1.5633614104
 H         -5.1182031221       -0.4567197783        0.2772092569
 H         -2.4407631294        2.7875625599       -1.6189765741
 H         -4.1769197670        3.0852544044       -1.4965898472
 H         -3.5249825363        0.9653055595       -2.7129421632
 H         -4.6809399589        0.7406613451       -1.3880027645
 O         -1.5866924731       -0.1547771908       -1.7201778755
 C         -0.5952935029       -1.0308422235       -1.2992334564
 O          0.4136854081       -1.0571070831       -2.0272732837
 O         -2.2127047311       -2.2888148997        1.6883815311
 C          0.2368660441       -2.7652187349        0.2993024187
 C          1.5532323167       -2.0719658019        0.5513100750
 C          2.7806389349       -2.6637821712        0.2765738816
 C          3.9601720643       -1.9977743887        0.5593404885
 C          3.9439745429       -0.7300091006        1.1114145283
 C          2.7220063336       -0.1313766908        1.3940881175
 C          1.5431881536       -0.8061145108        1.1218013623
 H          0.6024887000       -0.3293963476        1.3553054802
 N          2.6561212149        1.1536274728        1.9623499060
 S          1.5747693299        2.2541329128        1.3233193193
 O          2.0642654555        3.5397995689        1.7786583384
 O          0.2273333531        1.9269893094        1.7175720292
 C          1.7463762689        2.1491996973       -0.4480856473
 C          3.0090450011        2.1447702481       -1.0070895671
 C          3.1290306839        2.0806672380       -2.3851230878
 C          1.9927588454        2.0294677337       -3.1776255921
 C          0.7332484099        2.0462635549       -2.6023443175
 C          0.6092540140        2.1058745997       -1.2243819188
 H         -0.3501581675        2.1034254658       -0.7326806203
 H         -0.1521288587        1.9932507794       -3.2154456788
 H          2.0879697495        1.9713580475       -4.2504008232
 H          4.1076960300        2.0658432901       -2.8373780775
 H          3.8774983644        2.1928082193       -0.3706378269
 H          3.5527925343        1.5847897785        2.1355609029
 H          4.8643475614       -0.2095626102        1.3281993161
 H          4.9056046162       -2.4699820184        0.3404362353
 H          2.8125568840       -3.6489245917       -0.1589974871
 H         -0.1217064212       -3.1668526741        1.2599442713
 C          0.3427701095       -3.9055884802       -0.6939295847
 C          0.6676209633       -5.2933641857       -0.2301160550
 C         -0.7188436891       -4.9632342054       -0.6920168263
 H         -1.0583601824       -5.3562822224       -1.6384915169
 H         -1.4999830436       -4.8772319191        0.0494938887
 H          1.2800328047       -5.9184997410       -0.8624390998
 H          0.8236704803       -5.4450090073        0.8273665346
 H          0.7246650860       -3.5819310714       -1.6556261093
