  62
        -98.94348442
 C          1.8146319928       -0.5516639316       -0.3185402937
 C          2.9575022450       -0.6477548745       -1.1469130132
 C          4.2460289337       -0.7663258216       -0.4519135224
 C          4.2671036459       -0.7905091806        0.8935881919
 C          5.5127002075       -0.8452947995        1.7290233831
 C          6.0089849758        0.5650578915        2.0774591401
 C          6.1010056426        1.5027678534        0.8736190427
 H          5.0953210473        1.6901307911        0.4901450223
 H          6.4896778123        2.4577916279        1.2338386396
 C          6.9896676525        0.9867337055       -0.2667895922
 H          7.6257870627        1.8042842478       -0.6126340847
 H          7.6472418552        0.1992899202        0.1032083832
 C          6.2221918666        0.4734766075       -1.4866073308
 H          5.4967400506        1.2258932100       -1.8066858140
 H          6.9347798504        0.3388074095       -2.3047803178
 C          5.4842466142       -0.8581329683       -1.2987845139
 H          6.1713526450       -1.6060256722       -0.8979757304
 H          5.1484260278       -1.1929819754       -2.2846689092
 H          5.3198062845        1.0053657916        2.8017413333
 H          6.9893858323        0.4794448265        2.5495162711
 H          5.2838303213       -1.3785346007        2.6531247502
 H          6.2839847952       -1.3898600346        1.1879142377
 O          3.1459341997       -0.7173956819        1.6551717323
 C          1.8930845258       -0.5861926815        1.0738834243
 O          0.9530965878       -0.5151129761        1.8868798507
 O          2.9027505266       -0.6288437890       -2.4067439013
 C          0.4490628560       -0.4079271546       -0.9630685746
 C         -0.2328307108        0.8551474794       -0.4981027824
 C          0.5049947907        2.0326079039       -0.4031567621
 C         -0.0863973254        3.2066061216        0.0191073036
 C         -1.4331997660        3.2386668690        0.3357442089
 C         -2.1835969187        2.0752071252        0.2281085349
 C         -1.5819974389        0.8928036441       -0.1824389806
 H         -2.1824700609        0.0018936711       -0.2581446398
 N         -3.5480374918        2.0709554979        0.5502317512
 S         -4.6275580075        1.1890533747       -0.3725889778
 O         -4.2317784208        1.1443350553       -1.7607696954
 O         -5.9152228977        1.7931593229       -0.1016538010
 C         -4.6088198000       -0.4480301715        0.3263807614
 C         -4.7938928015       -1.5294680868       -0.5120958382
 C         -4.8323212693       -2.8033898794        0.0332044431
 C         -4.6853395544       -2.9724949154        1.4011705156
 C         -4.5018371604       -1.8756784162        2.2295278172
 C         -4.4673233082       -0.5991309162        1.6914473455
 H         -4.3217600642        0.2728129183        2.3069645661
 H         -4.3835204397       -2.0111099086        3.2925915583
 H         -4.7123163050       -3.9645712705        1.8237284816
 H         -4.9749987953       -3.6572927557       -0.6101070768
 H         -4.8917148030       -1.3532861957       -1.5715783579
 H         -3.9274371800        2.9671524379        0.8183178793
 H         -1.8981771946        4.1556856148        0.6645950673
 H          0.5030638156        4.1079928048        0.0964465945
 H          1.5557763436        2.0128180901       -0.6590310662
 H          0.6422218928       -0.3104508327       -2.0425618139
 C         -0.3726231888       -1.6587223054       -0.7291104909
 C         -1.3963190095       -2.0956058096       -1.7326176243
 C         -0.1165260483       -2.8608575131       -1.5860421189
 H         -0.1487245163       -3.8376090873       -1.1276529171
 H          0.6308571406       -2.7657005397       -2.3602354245
 H         -2.3071753702       -2.5480453167       -1.3705440192
 H         -1.5293397549       -1.4830533470       -2.6119442130
 H         -0.5815751226       -1.8261885166        0.3217904327
