  62
        -98.94568630
 C         -1.0029851504       -1.1382235601       -0.2423032400
 C         -2.0681293101       -1.2259538509        0.6927865803
 C         -2.9486832901       -0.0580712810        0.7886127115
 C         -2.7071640404        1.0194941797        0.0208012724
 C         -3.5071137104        2.2939284397        0.0069115237
 C         -4.7604060507        2.2352296604       -0.8777023660
 C         -5.9102960605        1.3911382199       -0.3266453263
 H         -6.1289852202        1.6991714491        0.6962116540
 H         -6.7917509207        1.6175559604       -0.9299841759
 C         -5.6608294905       -0.1229319600       -0.3681321877
 H         -4.8384983607       -0.3383127295       -1.0543721981
 H         -6.5459283606       -0.6274584297       -0.7624725678
 C         -5.3483878700       -0.7510299212        0.9900770917
 H         -5.1511475201       -1.8152516610        0.8380677708
 H         -6.2182601998       -0.6605689217        1.6445467021
 C         -4.1341842598       -0.1408998317        1.7023813318
 H         -4.3840511897        0.8454729479        2.0920092727
 H         -3.8653189595       -0.7913876124        2.5380450612
 H         -5.1192689207        3.2595448905       -1.0023146850
 H         -4.4748624010        1.8614323912       -1.8636839264
 H         -3.7927661601        2.5588462688        1.0251454140
 H         -2.8484081805        3.0694753500       -0.3875456159
 O         -1.6663285206        1.0748538504       -0.8486594979
 C         -0.7945690607        0.0065926306       -1.0120560491
 O          0.0906525490        0.2199722313       -1.8630216392
 O         -2.2748005799       -2.2399514615        1.4112479195
 C         -0.0930691404       -2.3513231800       -0.3493423713
 C          1.1463667098       -2.1411991407        0.4863815185
 C          1.3203606002       -2.8515834416        1.6692306379
 C          2.4393451905       -2.6472527423        2.4560880577
 C          3.3981883203       -1.7233863120        2.0837682581
 C          3.2301634199       -1.0027231710        0.9051098288
 C          2.1135641897       -1.2186321903        0.1100139090
 H          1.9949104294       -0.6514091196       -0.7994913305
 N          4.1869175098       -0.0574612206        0.5183790693
 S          3.8412723395        1.2150924802       -0.4966671396
 O          3.7439718290        0.7568870913       -1.8590283899
 O          4.9141281195        2.1566630600       -0.2388530191
 C          2.3100602996        1.9542855497        0.0457024415
 C          1.5689882593        2.6477290905       -0.8884703176
 C          0.4248087294        3.3136424701       -0.4805916567
 C          0.0370310799        3.2672309390        0.8485742634
 C          0.7869231902        2.5593814283        1.7739898925
 C          1.9403359600        1.9035461886        1.3745405816
 H          2.5370405403        1.3533695280        2.0839004310
 H          0.4770950805        2.5155921274        2.8060055726
 H         -0.8566520000        3.7813515787        1.1661323141
 H         -0.1626900808        3.8543946507       -1.2053922961
 H          1.8908224990        2.6392394014       -1.9172509878
 H          4.8888275900        0.1715261288        1.2055948792
 H          4.2707125805       -1.5565256925        2.6965580880
 H          2.5635682408       -3.2069669230        3.3704969572
 H          0.5612982303       -3.5563632019        1.9749919675
 H         -0.6630169303       -3.1742439404        0.1039065082
 C          0.2499936991       -2.7395390788       -1.7726910317
 C          0.6505888390       -4.1546453785       -2.0597425930
 C         -0.6777997911       -3.6417415082       -2.5273351222
 H         -0.8234151615       -3.4639464573       -3.5823137120
 H         -1.5653492909       -3.9863804886       -2.0165627922
 H          1.4218960288       -4.3311872679       -2.7936847434
 H          0.6619049793       -4.8495488692       -1.2335856836
 H          0.7414109089       -1.9549933283       -2.3332771312
