  62
        -98.93979821
 C         -1.8933717398       -1.6545208477       -0.0304127909
 C         -1.6495939617       -0.4555837151       -0.7380102718
 C         -2.7116350935        0.5711265665       -0.6883899652
 C         -3.8338105666        0.3132806800        0.0082621426
 C         -5.0173140784        1.2148050379        0.2400907870
 C         -4.7278659288        2.3086785450        1.2796464042
 C         -3.3945262008        3.0285084626        1.0961459354
 H         -3.2708217458        3.7145577116        1.9381477683
 H         -2.5829980763        2.3005633280        1.1486035882
 C         -3.2701413485        3.8389212186       -0.1916868215
 H         -4.0851979101        4.5645034722       -0.2383550033
 H         -2.3342631348        4.3993474686       -0.1315010770
 C         -3.2599015853        3.0326948423       -1.4932214023
 H         -2.8837023962        3.6914458348       -2.2812871793
 H         -4.2670183536        2.7487890684       -1.7875467565
 C         -2.3537553835        1.8055383065       -1.4801632090
 H         -2.2226477995        1.4607033865       -2.5128723128
 H         -1.3524142718        2.0946716840       -1.1436139105
 H         -4.7240613205        1.8432327545        2.2684318196
 H         -5.5434503791        3.0335415320        1.2520196466
 H         -5.8244573535        0.5821649656        0.6162265516
 H         -5.3484015761        1.6509544664       -0.6974438807
 O         -4.0248749274       -0.8639309076        0.6722571580
 C         -3.0737322983       -1.8624345481        0.6828586511
 O         -3.3858485721       -2.8709676541        1.3485633574
 O         -0.5944848958       -0.2343784820       -1.3881649574
 C         -0.8466956659       -2.7556749439        0.0043618075
 C          0.3999795661       -2.1922659815        0.6398063460
 C          0.3683737241       -1.8664823496        1.9934419332
 C          1.4618565800       -1.2858405569        2.6066086975
 C          2.6063343297       -1.0041993626        1.8800635977
 C          2.6424781153       -1.3145490273        0.5278805623
 C          1.5496226171       -1.9182826029       -0.0817362215
 H          1.5939821445       -2.1494108024       -1.1337894826
 N          3.7925404679       -1.0181099540       -0.2262097648
 S          4.4564281984        0.5124281541       -0.0966627587
 O          5.2816726049        0.6617499734       -1.2743051309
 O          5.1363718988        0.6302947823        1.1695143626
 C          3.0855278501        1.6507473657       -0.1585527486
 C          2.5026882440        1.9027911269       -1.3842173273
 C          1.4290424771        2.7742649942       -1.4499803720
 C          0.9533021471        3.3685066794       -0.2913946974
 C          1.5433560733        3.0990842892        0.9332152676
 C          2.6219926623        2.2324081688        1.0035916127
 H          3.1164055324        2.0081583820        1.9343721140
 H          1.1667944385        3.5610830311        1.8318500451
 H          0.1181160109        4.0499045307       -0.3435733356
 H          0.9641472015        2.9808685972       -2.4005808811
 H          2.9039272731        1.4290164588       -2.2655048881
 H          3.7093048387       -1.2784849483       -1.1983871158
 H          3.4679119197       -0.5480980812        2.3396876469
 H          1.4241569408       -1.0452950938        3.6583505710
 H         -0.5335564337       -2.0693508962        2.5553300247
 H         -1.2485291733       -3.5362413212        0.6645717046
 C         -0.6320824416       -3.3449000485       -1.3733507082
 C          0.0215884270       -4.6860358504       -1.5130698418
 C         -1.4428957082       -4.5326701188       -1.7918993155
 H         -1.7825154244       -4.5899967937       -2.8152686185
 H         -2.1469728768       -4.9325889309       -1.0767647142
 H          0.6873363669       -4.8538288859       -2.3461699340
 H          0.3149264259       -5.1940860144       -0.6068376297
 H         -0.4279280638       -2.5952782979       -2.1286255146
