  62
        -98.93920088
 C         -0.9308784567       -1.4716778876       -0.6149411584
 C         -2.1603499765       -1.7223203165        0.0443791496
 C         -3.2112266955       -0.6931373410       -0.0581615694
 C         -2.9510823887        0.4221501121       -0.7650617679
 C         -3.8494263363        1.6102155223       -0.9842348767
 C         -3.9550221303        2.5291491256        0.2461589370
 C         -4.0173438144        1.8103543828        1.5916672081
 H         -3.1649143725        1.1338832053        1.6778700947
 H         -3.9168565925        2.5630888123        2.3781049663
 C         -5.3082507009        1.0384378857        1.8522909706
 H         -5.2358092559        0.6021789807        2.8519347583
 H         -6.1482691032        1.7371268962        1.8552448067
 C         -5.6195491612       -0.0831805892        0.8618550092
 H         -6.4622273428       -0.6517759164        1.2664756145
 H         -5.9489312462        0.3221899269       -0.0908563082
 C         -4.4848963836       -1.0816808878        0.6531776013
 H         -4.1739719523       -1.4773655947        1.6266665542
 H         -4.8794296168       -1.9458440064        0.1043090515
 H         -4.8361737616        3.1622813616        0.1300954960
 H         -3.0750163623        3.1738670098        0.2595994719
 H         -3.4168293260        2.1795654273       -1.8094224070
 H         -4.8315900501        1.2687558446       -1.3001902325
 O         -1.7563525974        0.6227671157       -1.3863559448
 C         -0.7265124595       -0.3005295508       -1.3447387272
 O          0.2788797951        0.0489284746       -1.9938415616
 H          1.6946952183       -0.3399270095       -0.2486304739
 C          1.8258941449       -1.0124884823        0.5833434587
 C          1.1098370201       -2.2009527011        0.6238119311
 C          1.2987197431       -3.0616294125        1.6985496565
 C          2.1899801248       -2.7401190159        2.7070043647
 C          2.9041717438       -1.5570417481        2.6631159261
 C          2.7152922952       -0.6841938110        1.5957645466
 N          3.3786934109        0.5458024253        1.5614412193
 S          3.6235569712        1.4141144631        0.1605502724
 O          4.0481928639        0.5680688816       -0.9302733695
 O          4.5735852992        2.4366563949        0.5535567446
 C          2.0692921691        2.2029282150       -0.1974787507
 C          1.8389355873        2.6185433743       -1.4924133974
 C          0.6644971812        3.2923057515       -1.7829605974
 C         -0.2565458794        3.5355276088       -0.7778219770
 C         -0.0130854885        3.1073440250        0.5174807064
 C          1.1627772456        2.4384365606        0.8158044978
 H          1.3743563283        2.0871462652        1.8126255072
 H         -0.7366504996        3.2858927767        1.2977473120
 H         -1.1723997542        4.0565071809       -1.0106107348
 H          0.4672685468        3.6116749733       -2.7937777995
 H          2.5707181593        2.3893165773       -2.2505032122
 H          4.0933595114        0.6948648991        2.2567522762
 H          3.5976022069       -1.3030208792        3.4500334712
 H          2.3302367376       -3.4169101370        3.5360821809
 H          0.7326994303       -3.9801851920        1.7456849419
 C          0.1385964074       -2.5421797464       -0.4812918147
 H         -0.4010343162       -3.4520009461       -0.1839022886
 C          0.8879484340       -2.8301149626       -1.7670449420
 C          1.4929626707       -4.1862043862       -1.9666577929
 C          0.2944417188       -3.7742694852       -2.7669587378
 H          0.4201548800       -3.5571910625       -3.8169820407
 H         -0.6582585696       -4.2227851685       -2.5248463962
 H          2.4475210580       -4.2537110892       -2.4657367004
 H          1.3519143004       -4.9187263780       -1.1862639189
 H          1.4323059323       -1.9761382392       -2.1498026109
 O         -2.3807306213       -2.7785141388        0.6979158597
