  62
        -98.94025358
 C         -2.4821482937       -1.2599069952       -0.0751667721
 C         -2.3419410612       -0.0263550930       -0.7553011075
 C         -3.5872765789        0.7204047546       -0.9875225928
 C         -4.7563969857        0.2014241883       -0.5698906724
 C         -6.0873999625        0.8855967254       -0.6823425337
 C         -6.3882100630        1.7200848589        0.5708714035
 C         -5.2404132821        2.6370572434        0.9938799487
 H         -5.5764268721        3.1956640650        1.8701029294
 H         -4.3912484421        2.0258954051        1.3086054234
 C         -4.7791767228        3.6191545952       -0.0919631918
 H         -4.6513844047        4.6055695896        0.3586394537
 H         -5.5478645831        3.7105369323       -0.8601118041
 C         -3.4472065318        3.2558854399       -0.7511839018
 H         -3.1114282656        4.1149441666       -1.3384009665
 H         -2.6920998591        3.0723836119        0.0179947770
 C         -3.4772393051        2.0438341467       -1.6908200658
 H         -4.2810155369        2.1621631104       -2.4204231842
 H         -2.5244980209        2.0181278165       -2.2285058819
 H         -6.6031183083        1.0383075360        1.3968467434
 H         -7.2818392324        2.3172900014        0.3812792011
 H         -6.0892152472        1.5219210767       -1.5650141737
 H         -6.8587005957        0.1218052286       -0.7933013245
 O         -4.8522328574       -0.9978706729        0.0590055781
 C         -3.7222159448       -1.7497625569        0.3346920908
 O         -3.9482429980       -2.8159950468        0.9415905149
 H          1.4092206980       -1.4491028713       -0.2065536239
 C          1.0155774816       -1.0427898238        0.7089639157
 C         -0.2990481696       -1.2765481406        1.0783207041
 C         -0.7671181751       -0.7307000754        2.2716194236
 C          0.0554860081        0.0452093370        3.0636648874
 C          1.3597710422        0.2999857981        2.6770319559
 C          1.8407731866       -0.2480596521        1.4944021044
 N          3.1798473133       -0.0363660050        1.1109471698
 S          3.5451195248        0.3586599555       -0.4912815307
 O          2.8915266888        1.5927703873       -0.8678106591
 O          3.3075167430       -0.7860047526       -1.3317029054
 C          5.3017397564        0.6275781593       -0.3314102410
 C          5.7947763968        1.9171081452       -0.2753168716
 C          7.1596285663        2.1078136786       -0.1255859199
 C          8.0032077197        1.0113638338       -0.0321641865
 C          7.4936262195       -0.2774773747       -0.0905157033
 C          6.1304064316       -0.4746632898       -0.2414311630
 H          5.6900986372       -1.4562236217       -0.3000902201
 H          8.1530488136       -1.1274000862       -0.0197542574
 H          9.0648471970        1.1621135746        0.0841230245
 H          7.5586049417        3.1085044651       -0.0830667133
 H          5.1015936894        2.7386502803       -0.3603944114
 H          3.6387141392        0.6292100237        1.7205589444
 H          2.0002289600        0.9179466152        3.2885361417
 H         -0.3226035751        0.4647538738        3.9840342797
 H         -1.7920178056       -0.9200878042        2.5629772290
 C         -1.2534278943       -2.0943936658        0.2422943513
 H         -1.6080629835       -2.9377993000        0.8528787886
 C         -0.6392482058       -2.6401245988       -1.0288038439
 C          0.1713334725       -3.8994140979       -0.9879717581
 C         -1.1881593883       -3.9030243919       -1.6183647537
 H         -1.2605630295       -3.9808768156       -2.6927993535
 H         -1.9976897566       -4.3847769111       -1.0891686681
 H          0.2871463679       -4.3863951175       -0.0314701205
 H          1.0376568457       -3.9716238343       -1.6281834847
 H         -0.3327353672       -1.8595178084       -1.7166744349
 O         -1.2363213892        0.4328060367       -1.1474642760
