  62
        -98.94074447
 C         -1.1419483804       -1.0250726916        0.4309483955
 C         -2.0090593125       -0.7987603070       -0.6637555710
 C         -3.0219828240        0.2523817340       -0.4770054270
 C         -3.0333370625        0.9591122231        0.6677536207
 C         -4.0414328126        2.0114864941        1.0332203374
 C         -5.3642419680        1.3491111671        1.4688715432
 C         -6.5450695553        1.6290764527        0.5391941673
 H         -7.3514198054        0.9487556248        0.8210655281
 H         -6.8978676037        2.6481556347        0.7109287630
 C         -6.2647230367        1.4768413999       -0.9589195453
 H         -5.7515690113        2.3660065943       -1.3284980701
 H         -7.2333433194        1.4447810377       -1.4622874580
 C         -5.4556969242        0.2390239896       -1.3673791413
 H         -5.5580772637       -0.5503642362       -0.6226015302
 H         -5.8730030857       -0.1463985635       -2.2998105846
 C         -3.9606522142        0.5059408850       -1.6242676779
 H         -3.6162260085       -0.1647356655       -2.4174097953
 H         -3.8275121679        1.5307360957       -1.9832582749
 H         -5.6289844600        1.6908174402        2.4706366236
 H         -5.2003420567        0.2716774769        1.5368790112
 H         -3.6181581041        2.5947892438        1.8515394661
 H         -4.2030462858        2.6733075044        0.1850148106
 O         -2.1526667319        0.7426637825        1.6791640987
 C         -1.1795739741       -0.2373530355        1.5802939579
 O         -0.4172448427       -0.3091642680        2.5667789119
 H          0.8079050364        0.3562344595       -0.2927591155
 C          1.2798386047       -0.3936033750       -0.9084651203
 C          0.9252854942       -1.7265917051       -0.7567622457
 C          1.5235577126       -2.6680036296       -1.5850316978
 C          2.4405701288       -2.2717382369       -2.5435639501
 C          2.8006701970       -0.9431734866       -2.6807545978
 C          2.2116977848        0.0050777754       -1.8522411751
 N          2.5441641676        1.3652971335       -1.9437589892
 S          2.6196015776        2.2851303266       -0.5485248174
 O          1.2938772805        2.5939242954       -0.0729615444
 O          3.4341073564        3.4230178907       -0.9204887992
 C          3.5094899631        1.2671341868        0.6158221103
 C          2.8659410365        0.6616729348        1.6751967743
 C          3.5965387482       -0.1655834380        2.5150625712
 C          4.9471932573       -0.3719576850        2.2852815512
 C          5.5819244795        0.2516528716        1.2212419178
 C          4.8577118098        1.0758606401        0.3769441828
 H          5.3159092923        1.5883538869       -0.4532799734
 H          6.6342283097        0.0953232504        1.0472549394
 H          5.5071376441       -1.0195986102        2.9412668791
 H          3.0931718294       -0.6445767815        3.3399812535
 H          1.8126172855        0.8291779388        1.8400261577
 H          3.2971000082        1.5806104989       -2.5804665471
 H          3.5203663238       -0.6389077290       -3.4248991696
 H          2.8897142642       -3.0112424023       -3.1887675566
 H          1.2661637683       -3.7097042244       -1.4854650335
 C         -0.0567152869       -2.0809414410        0.3350799926
 H          0.4871814977       -2.0410830016        1.2913489393
 C         -0.6631760082       -3.4599665375        0.1773432998
 C          0.0192986888       -4.6580111125        0.7639941672
 C         -1.2403525712       -4.1351227245        1.3841764602
 H         -2.1502889845       -4.7050381318        1.2709847134
 H         -1.1696068631       -3.6101042224        2.3260930734
 H          0.9462324351       -4.4972342869        1.2933778363
 H         -0.0277524611       -5.5929476599        0.2262750710
 H         -1.1917166896       -3.5762745960       -0.7614387540
 O         -1.9412935571       -1.4393955922       -1.7457253550
