  62
        -98.94032798
 C          1.8896137205        1.4102287591        0.1970119111
 C          1.7318517102        0.0235901092       -0.0214021192
 C          2.9218227599       -0.8182549311        0.2045487108
 C          4.0772452500       -0.2408126015        0.5841049412
 C          5.4294791598       -0.8354990819        0.9192608413
 C          5.7446810295       -2.2927682319        0.5934294410
 C          5.8613380197       -2.6008855216       -0.8992063490
 H          6.7695509099       -2.1273367417       -1.2805870487
 H          5.9746877495       -3.6805153316       -1.0188504892
 C          4.6971261900       -2.1238572211       -1.7638508891
 H          4.6272416903       -1.0350953911       -1.7177345289
 H          4.9210282801       -2.3874035109       -2.8012068591
 C          3.3365821698       -2.7238138609       -1.4161070595
 H          2.6337222700       -2.4205603205       -2.1969819696
 H          3.4015122795       -3.8135773509       -1.4303819597
 C          2.7459102296       -2.2851110010       -0.0655789695
 H          1.6663187296       -2.4582741107       -0.0999800798
 H          3.1474313393       -2.8780927313        0.7526359704
 H          5.0191959893       -2.9490322618        1.0647658808
 H          6.7132515694       -2.5115902122        1.0511065412
 H          6.1679312801       -0.1917497220        0.4305570116
 H          5.5582967296       -0.6853730422        1.9968587714
 O          4.1783352003        1.1075782685        0.7815144515
 C          3.1054568906        1.9600772088        0.5969509415
 O          3.3549400708        3.1614369286        0.8224105118
 H         -1.9127979592        1.8746550003       -0.7626452095
 C         -1.7249687294        1.7143440300        0.2852199205
 C         -0.4600032895        1.9019473996        0.8182474108
 C         -0.2715508898        1.6838664892        2.1814426208
 C         -1.3178707201        1.2731549893        2.9835020705
 C         -2.5747241100        1.0624040898        2.4421904202
 C         -2.7757822797        1.2842343901        1.0860560302
 N         -4.0474917396        1.1065038606        0.5101789100
 S         -4.2476200696        0.1000692309       -0.8127729503
 O         -3.4383101093        0.5604831209       -1.9102798200
 O         -5.6767763396        0.0790295613       -1.0386156806
 C         -3.7180565801       -1.5098713594       -0.2542558405
 C         -2.3705284002       -1.7831172697       -0.1295774404
 C         -1.9890541306       -3.0234662899        0.3596403994
 C         -2.9467909309       -3.9612353998        0.7116243291
 C         -4.2961027808       -3.6690000294        0.5796719089
 C         -4.6867793604       -2.4308424892        0.0976176291
 H         -5.7231926903       -2.1600860489       -0.0245701911
 H         -5.0412286211       -4.3991126793        0.8520234286
 H         -2.6391565812       -4.9236350699        1.0894984989
 H         -0.9372701707       -3.2393836702        0.4614391696
 H         -1.6305546900       -1.0489723698       -0.4069410001
 H         -4.7757381098        0.9155233506        1.1843275698
 H         -3.3926008602        0.7336602798        3.0654247500
 H         -1.1540359303        1.1078114291        4.0377036205
 H          0.7135026002        1.8390278989        2.6012632010
 C          0.7160497608        2.3488421995       -0.0151207289
 H          1.0428079010        3.3328951893        0.3523282614
 C          0.4019226011        2.4640110299       -1.4922854289
 C         -0.2252920685        3.7122928902       -2.0334311388
 C          1.2091340815        3.4016505099       -2.3364220686
 H          1.4718971316        3.0977394900       -3.3386992786
 H          1.9753268615        3.9796538296       -1.8398946183
 H         -0.9519416584        3.6193562605       -2.8267869789
 H         -0.4346109184        4.5092825301       -1.3358298186
 H          0.1124017709        1.5180658801       -1.9370369292
 O          0.6440475201       -0.4979761004       -0.3790774995
