  62
        -98.93436111
 C         -1.8051998969       -0.7021506291        0.6983524703
 C         -2.0838539210        0.5226913091        0.0448615312
 C         -3.4923674138        0.9696851584        0.0673234185
 C         -4.4096453624        0.2348867427        0.7171590138
 C         -5.8898204962        0.4828518646        0.8053952322
 C         -6.6353910355       -0.2913580926       -0.2948353985
 C         -6.7530393576        0.4406062661       -1.6313025392
 H         -7.4615531389        1.2651072317       -1.5273454413
 H         -7.1748048107       -0.2641398922       -2.3516888455
 C         -5.4408856341        0.9928365999       -2.1946474614
 H         -5.5757160288        1.1453100044       -3.2673100324
 H         -4.6472978980        0.2536361612       -2.0713840403
 C         -5.0213419754        2.3242566314       -1.5535638229
 H         -5.8619405221        2.7261979134       -0.9880324749
 H         -4.8030913991        3.0502778596       -2.3396141535
 C         -3.7777864369        2.2592716970       -0.6529721386
 H         -3.8284530930        3.0670058709        0.0848548787
 H         -2.8824154943        2.4451065539       -1.2546837686
 H         -7.6442494665       -0.5162606599        0.0570052582
 H         -6.1208087908       -1.2446899521       -0.4407770706
 H         -6.2120718589        0.1029335641        1.7771998428
 H         -6.1068345837        1.5457234860        0.7552402096
 O         -4.0920634200       -0.9169565374        1.3689616299
 C         -2.8013346656       -1.4078815225        1.3814514720
 O         -2.6641126506       -2.4646156722        2.0289063945
 H          1.2637793658        0.2129273317       -0.7728707604
 C          1.3823491443        0.4107027145        0.2811192736
 C          0.5944122560       -0.2673532529        1.1979699222
 C          0.7464682410        0.0253583180        2.5490902291
 C          1.6695042310        0.9650304826        2.9726438221
 C          2.4539160349        1.6403592953        2.0536478398
 C          2.2930725673        1.3682467916        0.7031769592
 N          3.1101593882        2.0453499037       -0.2376164734
 S          4.6610299633        1.4209831955       -0.3347567433
 O          5.3218769777        1.6322944963        0.9274784626
 O          5.2735408005        2.0302602840       -1.4933644776
 C          4.4116957008       -0.3239233596       -0.6118863978
 C          4.2890529912       -0.7824910202       -1.9083256109
 C          3.9905846765       -2.1185965449       -2.1215583918
 C          3.8071195993       -2.9653332313       -1.0388643759
 C          3.9306523336       -2.4885429878        0.2574442896
 C          4.2332865130       -1.1542004742        0.4766294576
 H          4.3366352166       -0.7455672698        1.4686534855
 H          3.7828084090       -3.1483203633        1.0974703765
 H          3.5648282480       -4.0033941950       -1.2055730571
 H          3.8951060636       -2.4938851710       -3.1279345197
 H          4.4393936785       -0.0901309904       -2.7213543720
 H          2.7004828334        2.0604511930       -1.1617437179
 H          3.1902790230        2.3651078417        2.3610088709
 H          1.7792822783        1.1738553893        4.0260696067
 H          0.1295337966       -0.4954452046        3.2686980394
 C         -0.4100593333       -1.3034361000        0.7641208279
 H         -0.4734387155       -2.0640346152        1.5580928153
 C          0.0302739258       -2.0317759917       -0.4983980602
 C         -0.9341635847       -2.8948434238       -1.2538532222
 C         -0.4098343536       -1.6362342059       -1.8741945050
 H          0.3056683438       -1.7229838177       -2.6791010949
 H         -1.0757330102       -0.7937506212       -1.9728629499
 H         -1.9592132626       -2.9077057862       -0.9119016835
 H         -0.5893859068       -3.8433247713       -1.6362304616
 H          1.0459916245       -2.4050160078       -0.4064665327
 O         -1.2214200942        1.2205012992       -0.5486322589
