  62
        -98.94483310
 C         -1.9435510993       -0.5670558404       -0.5873825691
 C         -3.0269920193       -1.3257431801       -0.0811590286
 C         -4.3558786293       -0.7234026103       -0.2306484691
 C         -4.4817173993        0.4724888293       -0.8343153899
 C         -5.7722060094        1.2033695691       -1.0889399304
 C         -6.2663942895        2.0333942799        0.1037331990
 C         -6.8258461495        1.2222870406        1.2731571596
 H         -7.3297470895        1.9260698010        1.9386364291
 H         -7.5802439694        0.5271261603        0.9034133600
 C         -5.7655706894        0.4561431312        2.0764313201
 H         -4.7764299595        0.8634671111        1.8542647399
 H         -5.9401700695        0.6051027419        3.1443828600
 C         -5.7481443693       -1.0519043690        1.8263798511
 H         -6.6885031393       -1.4905836388        2.1672494014
 H         -4.9392092093       -1.4879785585        2.4179186514
 C         -5.5285751093       -1.4467195099        0.3599814114
 H         -5.3125948592       -2.5171518399        0.3213675221
 H         -6.4290977993       -1.2504150204       -0.2214066688
 H         -7.0557510495        2.6932306096       -0.2637166814
 H         -5.4449369295        2.6620628701        0.4552694486
 H         -6.5442405493        0.4920810288       -1.3838361399
 H         -5.5850297394        1.8802484085       -1.9253846908
 O         -3.4162582194        1.1661235391       -1.3160804203
 C         -2.1222194793        0.6783438492       -1.1894486899
 O         -1.2463547094        1.4336527289       -1.6518158604
 O         -2.8891318492       -2.4518687497        0.4667696221
 C         -0.5387756793       -1.1320896102       -0.4597907087
 C          0.2905798707       -0.2125395396        0.4007426407
 C         -0.0831924594       -0.0393140887        1.7322682406
 C          0.6139330805        0.8216241019        2.5559366601
 C          1.7053501705        1.5226850816        2.0719134796
 C          2.0868687906        1.3586662807        0.7461655897
 C          1.3842752106        0.4889846601       -0.0793070097
 H          1.6889283807        0.3996622895       -1.1077668996
 N          3.1726339005        2.0818871804        0.2286267893
 S          4.3200779406        1.3628416798       -0.7478352402
 O          5.3964252806        2.3270899399       -0.8057881608
 O          3.7437874407        0.9711458090       -2.0079092000
 C          4.8498005407       -0.0730396195        0.1680521208
 C          5.8488245206        0.0809319112        1.1099107007
 C          6.2314100606       -1.0136553783        1.8677749615
 C          5.6050760407       -2.2363236185        1.6780049523
 C          4.6028957208       -2.3737270892        0.7301560623
 C          4.2181019407       -1.2833639497       -0.0344644484
 H          3.4465101407       -1.3549290802       -0.7828678584
 H          4.1179207408       -3.3253566593        0.5816933829
 H          5.9008215007       -3.0882084481        2.2697553528
 H          7.0134123806       -0.9107374778        2.6027371014
 H          6.3161759606        1.0464503013        1.2167905001
 H          3.6098011305        2.7075573309        0.8891571589
 H          2.2482175805        2.2025672521        2.7109108592
 H          0.3093920105        0.9484941925        3.5838235300
 H         -0.9388294094       -0.5846538185        2.1065310909
 H         -0.6608490892       -2.0855791699        0.0744523120
 C          0.0540656208       -1.4136019511       -1.8231072385
 C          1.1147155908       -2.4612540111       -1.9744415677
 C         -0.2668637391       -2.7118276616       -2.4986552776
 H         -0.4241312291       -2.7113380723       -3.5668462176
 H         -0.8985446891       -3.4064514812       -1.9643888372
 H          1.9102964609       -2.2891615016       -2.6845219378
 H          1.4169544008       -2.9948777605       -1.0857753974
 H          0.1149875608       -0.5317897715       -2.4511660391
