  62
        -98.94147238
 C         -1.8060387423       -1.3593397994        0.3763681295
 C         -1.5619253570       -0.1003563629       -0.2270120184
 C         -2.3922331084        1.0095344456        0.2658659725
 C         -3.2648681046        0.8080932791        1.2685321387
 C         -4.1654936711        1.8447489517        1.8834222221
 C         -5.4740577472        2.0686544170        1.1129300318
 C         -5.3297638141        2.8191898078       -0.2117637602
 H         -6.3357438989        3.0970265133       -0.5325793560
 H         -4.7750813584        3.7432495104       -0.0454791974
 C         -4.6610994676        2.0081908341       -1.3306366348
 H         -4.6825137593        0.9466723735       -1.0730939194
 H         -5.2323425120        2.1233296741       -2.2544256504
 C         -3.2196966475        2.4156024206       -1.6354860267
 H         -3.2026328039        3.4374751609       -2.0206216857
 H         -2.8351261624        1.7543503672       -2.4160559902
 C         -2.2722892725        2.3305456859       -0.4317285588
 H         -1.2462982108        2.4154591834       -0.7968781596
 H         -2.4680074608        3.1483618005        0.2615950359
 H         -5.9443089952        1.0987893515        0.9336989126
 H         -6.1387696239        2.6440120755        1.7615006626
 H         -4.4127264646        1.4870181404        2.8854480821
 H         -3.6296167899        2.7900569195        1.9754006728
 O         -3.4134474487       -0.4008450973        1.8740701122
 C         -2.7031403450       -1.5087361110        1.4366618732
 O         -2.9422610746       -2.5524986743        2.0771274040
 O         -0.7024148388        0.1035325029       -1.1201448791
 C         -1.0532531790       -2.6059493884       -0.0538295207
 C          0.4172935627       -2.3038780532       -0.2197238092
 C          1.1602023645       -2.6698168911       -1.3343695745
 C          2.5126636898       -2.3816719920       -1.4023130494
 C          3.1500860276       -1.7125201908       -0.3747385289
 C          2.4103767639       -1.3202683717        0.7342425228
 C          1.0631134955       -1.6339409706        0.8126215228
 H          0.4933111772       -1.3351526020        1.6846646331
 N          3.0340814060       -0.6061642486        1.7699219342
 S          4.1630610776        0.5622851092        1.3744778402
 O          5.4468889477       -0.0643779678        1.1732403672
 O          4.0989917789        1.5222370542        2.4553959701
 C          3.6203272901        1.3096356735       -0.1525429505
 C          4.4679103846        1.3127764040       -1.2420378674
 C          4.0407494274        1.8972728039       -2.4229930204
 C          2.7792485278        2.4670990638       -2.4926410225
 C          1.9431300712        2.4625081965       -1.3872699266
 C          2.3636223325        1.8782370384       -0.2043004582
 H          1.7286157209        1.8570104175        0.6674137899
 H          0.9598862491        2.9005725195       -1.4456963239
 H          2.4422136268        2.9175375115       -3.4128273095
 H          4.6899698712        1.9038574711       -3.2837023628
 H          5.4398661708        0.8570620138       -1.1428024697
 H          2.4021845904       -0.2801953590        2.4856717972
 H          4.2039809098       -1.4895751868       -0.4107995339
 H          3.0782568721       -2.6781373159       -2.2722902468
 H          0.6805803708       -3.1684708321       -2.1599227858
 H         -1.1523900585       -3.3044453612        0.7943144431
 C         -1.6640621521       -3.3032916653       -1.2619132752
 C         -3.1011374421       -3.0965299126       -1.6351620883
 C         -2.0145009688       -2.5553850021       -2.5119736072
 H         -1.8399455231       -3.0345536631       -3.4641403832
 H         -1.8382948489       -1.4916880754       -2.5179575314
 H         -3.6670103637       -3.9498184422       -1.9783683577
 H         -3.6804112162       -2.4016827465       -1.0440828546
 H         -1.2830023693       -4.3121974694       -1.3854626040
