  62
        -98.93969637
 C         -2.5362440782       -1.2355680317       -0.2356003593
 C         -2.1627431645       -0.0621521802       -0.9363517114
 C         -3.1866459771        0.9900301814       -1.0054961076
 C         -4.3950824335        0.7911740366       -0.4498674268
 C         -5.5387172785        1.7687155315       -0.4403869617
 C         -5.4576144144        2.8036075951        0.6904218716
 C         -4.3858628192        3.8801556607        0.5132345843
 H         -4.4915391502        4.3386085006       -0.4703620695
 H         -4.5840037304        4.6542538858        1.2571373197
 C         -2.9453687089        3.3804416196        0.6961074536
 H         -2.9530636428        2.4178380550        1.2132291356
 H         -2.3941904873        4.0779959521        1.3307960062
 C         -2.1551885537        3.2339488877       -0.6047573569
 H         -2.0212987661        4.2154601591       -1.0655069571
 H         -1.1637648440        2.8379282922       -0.3653111136
 C         -2.8026278406        2.2960949881       -1.6321893901
 H         -3.6712896264        2.7737261507       -2.0851637221
 H         -2.0675816181        2.0871660495       -2.4136645670
 H         -5.2920862812        2.2774959331        1.6333209878
 H         -6.4301865525        3.2972062339        0.7505598489
 H         -5.5927592807        2.2802148780       -1.4015104370
 H         -6.4493688685        1.1814190290       -0.3055660424
 O         -4.7275145807       -0.3673981620        0.1791854392
 C         -3.8027539724       -1.3864615107        0.3326558603
 O         -4.2255388528       -2.3664208014        0.9791943330
 H          1.0663923552       -1.5423805924       -0.4838079895
 C          0.7745649564       -1.4753095155        0.5501555600
 C         -0.4937630316       -1.8623519418        0.9532679289
 C         -0.8397443043       -1.7372844253        2.2973254158
 C          0.0612201038       -1.2324389598        3.2139016097
 C          1.3215250527       -0.8317290046        2.8054957813
 C          1.6776724250       -0.9530469730        1.4677331338
 N          2.9693847157       -0.5843413289        1.0445590152
 S          3.1383330957        0.3098441553       -0.3820126599
 O          2.3378389819        1.5116504014       -0.3137452890
 O          2.9333154272       -0.5592996212       -1.5111452073
 C          4.8702330224        0.7270731274       -0.2691027981
 C          5.2466771002        2.0061866609        0.0929376033
 C          6.5965260104        2.3055959710        0.1937243184
 C          7.5419498856        1.3248016842       -0.0643962412
 C          7.1490660688        0.0447925585       -0.4271121469
 C          5.8014290871       -0.2599482458       -0.5317524604
 H          5.4489617238       -1.2365873641       -0.8193951923
 H          7.8870935951       -0.7145705583       -0.6293874323
 H          8.5915371894        1.5600909192        0.0146864053
 H          6.9043597662        3.3006703947        0.4720166369
 H          4.4759148789        2.7374527016        0.2769510557
 H          3.4868365256       -0.1280935535        1.7856515827
 H          2.0249480096       -0.4282707321        3.5185284889
 H         -0.2202828045       -1.1417211072        4.2523113966
 H         -1.8331856372       -2.0332490508        2.6066665353
 C         -1.5426163581       -2.3648696125       -0.0100507797
 H         -2.1060990901       -3.1644788312        0.4909901451
 C         -0.9836873657       -2.9067709594       -1.3069989806
 C         -0.3419994737       -4.2605823162       -1.3168030265
 C         -1.6734322415       -4.0571927116       -1.9738014498
 H         -1.7254769049       -4.0700270517       -3.0521622426
 H         -2.5502795609       -4.4616195053       -1.4890445163
 H         -0.3152234571       -4.8050260151       -0.3848481800
 H          0.5240777779       -4.4136079363       -1.9424153350
 H         -0.5637735590       -2.1415566435       -1.9483503686
 O         -1.0419913485        0.1097139549       -1.4830634314
