  62
        -98.93166594
 C         -0.5323999873       -2.2148732005       -0.0894970746
 C          0.2462978675       -1.7901043176        1.0160711454
 C          1.7083241310       -1.7844825268        0.8086780118
 C          2.2162572423       -2.2023517229       -0.3632498080
 C          3.6734757700       -2.2323590184       -0.7287204203
 C          4.1543493116       -0.8190547546       -1.1103856650
 C          5.1821657993       -0.2201049934       -0.1509892431
 H          6.1522244739       -0.6882981663       -0.3302463250
 H          5.2757691304        0.8397674885       -0.3935204197
 C          4.8648990864       -0.3621826916        1.3406943344
 H          5.1348987184       -1.3633571256        1.6801098106
 H          5.5176492913        0.3320629011        1.8738741544
 C          3.4122702468       -0.0828079548        1.7493430075
 H          2.9204264236        0.5619893548        1.0203054111
 H          3.4223303247        0.4626329693        2.6955179443
 C          2.5550444717       -1.3431157053        1.9701642931
 H          3.1931403207       -2.1699719326        2.2957463951
 H          1.8418536269       -1.1437607876        2.7760796457
 H          3.2810275893       -0.1664362446       -1.1611232456
 H          4.5926415100       -0.8427897652       -2.1089326646
 H          3.7787868086       -2.9116095603       -1.5749927629
 H          4.2512105453       -2.6237346288        0.1057625549
 O          1.4354362735       -2.5990289956       -1.4019399092
 C          0.0561748669       -2.6039636736       -1.2954916263
 O         -0.5337385915       -2.9843607983       -2.3269232167
 O         -0.2265873516       -1.4495065171        2.1296949971
 C         -2.0504888986       -2.2914288333       -0.0693838589
 C         -2.6683771409       -1.0062462341       -0.5585729955
 C         -3.6912041188       -1.0362109479       -1.5000343541
 C         -4.2667616455        0.1376006949       -1.9518264328
 C         -3.8291169004        1.3597994792       -1.4769795086
 C         -2.8019974363        1.4023789607       -0.5378380364
 C         -2.2271394796        0.2222630498       -0.0837607101
 H         -1.4393191810        0.2639653781        0.6528996666
 N         -2.3621261910        2.6403180472       -0.0596081030
 S         -0.9818622434        2.9593891941        0.7969940511
 O         -0.9225167100        2.1717973593        2.0008226708
 O         -1.0220072072        4.3947291040        0.9857662534
 C          0.4251546541        2.6042962293       -0.2476941331
 C          1.6465401670        3.0277460966        0.2407897240
 C          2.7812608316        2.8704072400       -0.5378001080
 C          2.6783495643        2.2888280691       -1.7926666764
 C          1.4493560862        1.8559741815       -2.2645301069
 C          0.3088504907        2.0171496766       -1.4909369302
 H         -0.6498435266        1.6818150340       -1.8526618152
 H          1.3691844375        1.3906692184       -3.2343291148
 H          3.5581216661        2.1719340506       -2.4057493918
 H          3.7369630732        3.2027351060       -0.1654167664
 H          1.6794276159        3.4786207208        1.2197289848
 H         -2.7374189437        3.4576394588       -0.5141081176
 H         -4.2733284554        2.2785183578       -1.8276108604
 H         -5.0593234073        0.1020286486       -2.6833705658
 H         -4.0230448650       -1.9882214301       -1.8870043652
 H         -2.3071994722       -3.0727236308       -0.8035463831
 C         -2.6184388687       -2.7396580130        1.2701682518
 C         -3.3016242840       -1.8191401067        2.2309762187
 C         -4.1037090258       -2.8258539756        1.4655548528
 H         -4.5067705532       -3.6766467601        1.9937375036
 H         -4.7336800299       -2.4591823276        0.6692100508
 H         -3.1256056621       -1.9783336223        3.2839621007
 H         -3.3899312037       -0.7766010365        1.9670611487
 H         -2.0236827403       -3.5333836148        1.7110328892
