  62
        -98.93992786
 C         -1.5019453942       -1.4589769480       -0.0480739252
 C         -1.4913907630       -0.0903657679        0.3081574271
 C         -2.7921194668        0.4928622845        0.6862726199
 C         -3.8841896500       -0.2908381959        0.6890728680
 C         -5.3019340665        0.1197428587        0.9770256380
 C         -6.0375716678        0.4757724750       -0.3262220876
 C         -5.8851113342        1.9280518480       -0.7774449109
 H         -6.3413647533        2.0091249250       -1.7668627874
 H         -6.4513469940        2.5738948674       -0.1028869372
 C         -4.4458045375        2.4441150080       -0.8560416898
 H         -3.8072218878        1.6844763111       -1.3104119512
 H         -4.4390595564        3.3117788706       -1.5186982900
 C         -3.8774432022        2.8568533107        0.5098128433
 H         -4.6928159851        2.9136319228        1.2308279771
 H         -3.4591332429        3.8627586600        0.4375220420
 C         -2.7651841941        1.9502556731        1.0577476933
 H         -1.7929058931        2.3034143499        0.6999798833
 H         -2.7444702064        2.0309104866        2.1495120932
 H         -5.6735194582       -0.1939335986       -1.1097567585
 H         -7.1025056449        0.2734385370       -0.1941760020
 H         -5.7926066811       -0.7454004807        1.4278696517
 H         -5.3293816110        0.9450865006        1.6822583951
 O         -3.8428472772       -1.6127433445        0.3607799438
 C         -2.6630527423       -2.2283063521       -0.0165547229
 O         -2.7739689675       -3.4418016525       -0.2867313288
 O         -0.4508166026        0.6149114174        0.3044931137
 C         -0.2084790337       -2.1245911979       -0.4818156478
 C          0.8526597141       -1.8992759709        0.5665610513
 C          0.5753563842       -2.2389799381        1.8887637860
 C          1.5060616938       -2.0176436305        2.8845371234
 C          2.7284020923       -1.4396542548        2.5873981520
 C          3.0193896702       -1.1097943462        1.2698787600
 C          2.0912261898       -1.3564591985        0.2671015539
 H          2.3539943703       -1.1114327170       -0.7472560794
 N          4.2520637304       -0.5367306841        0.9327459147
 S          4.3939679961        0.5118297587       -0.3576055564
 O          4.3935049751       -0.2261324809       -1.5968180172
 O          5.6081553244        1.2494198432       -0.0740560112
 C          2.9984022412        1.6203446365       -0.2994993508
 C          2.7456062918        2.3082634139        0.8694316452
 C          1.6875845047        3.2002912137        0.9050585819
 C          0.9075857719        3.3921782204       -0.2235640196
 C          1.1745648045        2.6949507260       -1.3896959972
 C          2.2292503441        1.7989105661       -1.4298688909
 H          2.4669348315        1.2302441800       -2.3155765245
 H          0.5580211328        2.8377505025       -2.2633445605
 H          0.0814056089        4.0855538528       -0.1932735643
 H          1.4686513822        3.7375341774        1.8140993942
 H          3.3718676122        2.1428038651        1.7313511338
 H          4.8320592174       -0.2646487513        1.7119384399
 H          3.4504358389       -1.2498429383        3.3667434878
 H          1.2752422453       -2.2850260630        3.9048680180
 H         -0.3878525306       -2.6717060330        2.1244954008
 H         -0.4185042868       -3.2022923768       -0.5424883907
 C          0.1902827745       -1.6232400741       -1.8543388564
 C          1.0464087065       -2.4673828821       -2.7483322262
 C         -0.4024748573       -2.2621817951       -3.0722881804
 H         -0.6606445917       -1.6338642690       -3.9115681025
 H         -1.0838652903       -3.0864741529       -2.9184740702
 H          1.7910058812       -1.9811631351       -3.3612138702
 H          1.3512024675       -3.4350283403       -2.3789543344
 H          0.3363204849       -0.5486898860       -1.8747620061
