  62
        -98.94652470
 C         -1.5001106803        1.4182321802        0.4256585900
 C         -2.7842420744        1.3644903900       -0.1711575235
 C         -3.5872780999        0.1731032067        0.1316454234
 C         -3.0698452617       -0.7834971985        0.9245112074
 C         -3.7567532887       -2.0741377913        1.2654628769
 C         -3.4147573868       -3.1816111882        0.2583812056
 C         -3.5461745962       -2.7520189194       -1.2023996231
 H         -2.8107231202       -1.9722886017       -1.4148611041
 H         -3.2894320096       -3.6151256945       -1.8206855551
 C         -4.9429920092       -2.2463124793       -1.5887323513
 H         -5.6732329749       -2.5719135756       -0.8468677412
 H         -5.2282430955       -2.6955239826       -2.5424426450
 C         -5.0416025054       -0.7299096419       -1.7626877067
 H         -4.2554652040       -0.3859572114       -2.4396582646
 H         -6.0012070980       -0.5035555205       -2.2352500874
 C         -4.9615150497        0.0945337694       -0.4716886238
 H         -5.2398362699        1.1234673109       -0.7180518778
 H         -5.6803094501       -0.2900051385        0.2548145398
 H         -4.0701312200       -4.0337808215        0.4475721912
 H         -2.3852865185       -3.5025435456        0.4277924305
 H         -3.4311097229       -2.3843499281        2.2596038451
 H         -4.8325404878       -1.9094204329        1.2840404888
 O         -1.8362590369       -0.6962169891        1.4809149822
 C         -1.0173894213        0.3994531034        1.2488676457
 O          0.0810843064        0.3442177992        1.8310916503
 H          1.9202343568        1.9176332599        0.9177157792
 C          1.7577350212        1.7511445995       -0.1349768551
 C          0.5436041382        2.0928447404       -0.7102436308
 C          0.3574123642        1.8475048726       -2.0680353480
 C          1.3596819964        1.2737539437       -2.8277492956
 C          2.5638199376        0.9154304417       -2.2456471104
 C          2.7533969241        1.1463243661       -0.8900420281
 N          3.9631491554        0.7484795758       -0.2796879123
 S          4.3010638409       -0.8928479317       -0.3033081006
 O          5.4024756512       -1.0696681101        0.6160200638
 O          4.5417110632       -1.2966992303       -1.6661660428
 C          2.8423591905       -1.7032329042        0.3241158042
 C          2.7675330756       -1.9807705276        1.6735426921
 C          1.6200987039       -2.5715927891        2.1738883477
 C          0.5675570783       -2.8625491489        1.3218089898
 C          0.6549634011       -2.5712235638       -0.0297866588
 C          1.8025743335       -1.9856732519       -0.5380616397
 H          1.9057683335       -1.7476321195       -1.5844833577
 H         -0.1708997971       -2.7878418870       -0.6900252964
 H         -0.3312829213       -3.3078169334        1.7189030565
 H          1.5428952521       -2.7910180715        3.2266748473
 H          3.6086722592       -1.7368845343        2.3028227063
 H          4.0433217015        1.0796315876        0.6721612957
 H          3.3467884542        0.4399584292       -2.8139171744
 H          1.2020935850        1.0959695195       -3.8809669932
 H         -0.5927694483        2.1008479457       -2.5176564191
 C         -0.6115042016        2.6105960543        0.1083107999
 H         -1.2194730668        3.2694636865       -0.5257115004
 C         -0.2011868230        3.3710728112        1.3508939777
 C          0.3905281045        4.7408544916        1.2093276912
 C         -0.9905225986        4.5745929768        1.7664490679
 H         -1.1465356770        4.7487655907        2.8205668597
 H         -1.8295164980        4.8601813640        1.1490651869
 H          1.1840283004        5.0335627503        1.8799015229
 H          0.4904281672        5.1386934246        0.2107343889
 H          0.1763537281        2.7337978775        2.1411705959
 O         -3.2375680291        2.2716913567       -0.9191805555
