  62
        -98.94445820
 C          1.7858303947        0.6933860403       -0.0461597369
 C          2.9396113375        1.2626424553        0.5443354992
 C          4.2162072483        0.9303913864       -0.0971890564
 C          4.2286478280        0.1487462377       -1.1923604389
 C          5.4488571578       -0.2614739008       -1.9716632906
 C          6.1745598415       -1.4847042968       -1.3945711450
 C          6.9479760738       -1.2311919318       -0.0998960907
 H          7.5782769920       -2.1058266576        0.0728345878
 H          7.6094738773       -0.3749574135       -0.2352159194
 C          6.0618500335       -1.0101557985        1.1339602256
 H          6.4443863734       -1.6029313374        1.9679644130
 H          5.0511370005       -1.3685000370        0.9243898906
 C          5.9850374581        0.4415156933        1.6071120594
 H          6.9711668412        0.7699975228        1.9425117873
 H          5.3059726595        0.4878389117        2.4623019144
 C          5.4769861440        1.4255870255        0.5450502690
 H          5.2488886588        2.3740425446        1.0373113217
 H          6.2461318822        1.5975238135       -0.2073885707
 H          6.8805470300       -1.8322598773       -2.1524020086
 H          5.4429579065       -2.2799828993       -1.2331073566
 H          6.1421700812        0.5774914609       -2.0369169961
 H          5.1053975851       -0.5085135918       -2.9785276979
 O          3.0942688745       -0.3598478585       -1.7441688260
 C          1.8499593125       -0.1225112790       -1.1753747336
 O          0.9035389683       -0.6794751468       -1.7637324271
 O          2.9034526035        2.0083174669        1.5594359533
 C          0.4311960366        0.9740428658        0.5777960578
 C         -0.2383333670       -0.3159466608        0.9807926391
 C          0.4856412630       -1.2412565837        1.7293614081
 C         -0.0849015889       -2.4362740082        2.1196327525
 C         -1.3916036348       -2.7341472014        1.7745047382
 C         -2.1290304794       -1.8129842092        1.0411915167
 C         -1.5543263762       -0.6079393753        0.6577465590
 H         -2.1403685072        0.0875489231        0.0812377717
 N         -3.4704889157       -2.0684370434        0.7306477534
 S         -4.1885522648       -1.4943855882       -0.6644257080
 O         -5.3949704311       -2.2873028989       -0.7856378980
 O         -3.2985787473       -1.5239945785       -1.8002495763
 C         -4.6485647971        0.1812565497       -0.2755035559
 C         -4.5345567611        1.1496081095       -1.2529153209
 C         -4.9407732902        2.4439582530       -0.9665404233
 C         -5.4506427533        2.7456444586        0.2869532181
 C         -5.5580627204        1.7612902837        1.2575914760
 C         -5.1590733645        0.4645376578        0.9759732700
 H         -5.2301116604       -0.3250675519        1.7049253169
 H         -5.9526563869        2.0005006441        2.2318800336
 H         -5.7629771410        3.7541298651        0.5075254993
 H         -4.8573803353        3.2097463062       -1.7216595928
 H         -4.1190150491        0.8736120791       -2.2095114901
 H         -3.8022037751       -2.9897496695        0.9750712514
 H         -1.8372272680       -3.6715815626        2.0706129040
 H          0.4921111431       -3.1464825547        2.6928070148
 H          1.5087513698       -1.0110254463        1.9943597955
 H          0.6491015534        1.5458099938        1.4927476015
 C         -0.4111238182        1.8347998402       -0.3394923724
 C         -1.4187234045        2.7819397241        0.2386161491
 C         -0.1588775432        3.3113888679       -0.3758603125
 H         -0.2196502531        3.8205009711       -1.3259543553
 H          0.6096701567        3.6973012190        0.2777978618
 H         -2.3498285948        2.9288063258       -0.2871817720
 H         -1.5100823533        2.8150951290        1.3135713208
 H         -0.6440972283        1.3417864186       -1.2776133055
