  62
        -98.93702155
 C         -1.4107979736       -1.4853556396        0.1804859160
 C         -2.4681413343       -1.0089619020        0.9922535484
 C         -3.2993021545        0.0763308075        0.4383827428
 C         -2.9770480073        0.5855432735       -0.7647151662
 C         -3.6939210455        1.6863209592       -1.4986498518
 C         -3.3739470897        3.0969844265       -0.9581930744
 C         -3.0374989436        3.1615233495        0.5319086177
 H         -2.2955084857        2.3958417876        0.7680086538
 H         -2.5759523493        4.1316186288        0.7354574645
 C         -4.2398117728        3.0148486097        1.4640262068
 H         -3.8680602889        2.9467602891        2.4896108121
 H         -4.8513041883        3.9180452889        1.3922098371
 C         -5.1457300756        1.8172704276        1.1878853273
 H         -5.6250876543        1.9314495172        0.2191204245
 H         -5.9439125755        1.8304595518        1.9362747416
 C         -4.4775089846        0.4483083672        1.3034933481
 H         -5.2432280488       -0.3210143242        1.1401776734
 H         -4.1332909376        0.3069876267        2.3341210129
 H         -4.2187752958        3.7547079099       -1.1666998890
 H         -2.5140986495        3.4817501184       -1.5100071508
 H         -3.3771871383        1.6301625454       -2.5416864171
 H         -4.7628453686        1.4878406355       -1.4678741982
 O         -1.8940461667        0.1627776990       -1.4702732846
 C         -1.0889929597       -0.8803028352       -1.0361657434
 O         -0.1528417306       -1.1513477549       -1.8064406103
 O         -2.7122084590       -1.4714908703        2.1403674661
 C         -0.5808094480       -2.6419985547        0.7087655097
 C          0.8871267214       -2.3323512846        0.5647321471
 C          1.7585257485       -3.0679392512       -0.2264355643
 C          3.0883347600       -2.6989727506       -0.3348068841
 C          3.5777920863       -1.5974218663        0.3420146325
 C          2.7140494692       -0.8558543359        1.1376673504
 C          1.3839682498       -1.2271942474        1.2458494382
 H          0.7099984296       -0.6417377555        1.8600197963
 N          3.2020758453        0.2804064913        1.8194217618
 S          3.8455059946        1.4857822344        0.8460667759
 O          5.1392069785        1.0672215325        0.3699475345
 O          3.8242789633        2.6824772179        1.6577077901
 C          2.7005001110        1.6295623841       -0.5107108632
 C          2.9762897444        1.0148005114       -1.7145014194
 C          2.0360844841        1.0806108693       -2.7294172039
 C          0.8419150808        1.7515607481       -2.5228838494
 C          0.5801880418        2.3630110518       -1.3072352130
 C          1.5134719576        2.2975340615       -0.2870527883
 H          1.3445382317        2.7638941225        0.6712205647
 H         -0.3538411574        2.8766307391       -1.1448260616
 H          0.1045559955        1.7870155335       -3.3089107398
 H          2.2290348152        0.5959134764       -3.6724800743
 H          3.9156559002        0.5005615522       -1.8351482460
 H          2.5204683520        0.6862776990        2.4453272035
 H          4.6073359052       -1.2889822275        0.2582135839
 H          3.7526001434       -3.2756671684       -0.9603188999
 H          1.3911623107       -3.9154215461       -0.7809164554
 H         -0.8155301894       -2.6766457794        1.7860415319
 C         -0.9696962061       -3.9986375733        0.1405868776
 C         -2.3775871126       -4.2779736932       -0.2908101585
 C         -1.2821622735       -4.2068265265       -1.3098515583
 H         -0.9581032994       -5.1261026273       -1.7756125953
 H         -1.2363560075       -3.3482081085       -1.9607319076
 H         -2.8047360730       -5.2416289374       -0.0569713091
 H         -3.0863007525       -3.4638688548       -0.2433592168
 H         -0.4553627345       -4.8090890329        0.6482140008
