  62
        -98.94686062
 C         -1.2379727195       -1.2229142476        0.0854421167
 C         -1.9846826093       -0.6895174424        1.1616976826
 C         -2.6623366531        0.5876583303        0.9025768363
 C         -2.5096951440        1.1805758253       -0.2959836724
 C         -3.1945312627        2.4488842906       -0.7141149775
 C         -4.5381558218        2.1542937860       -1.3960587705
 C         -5.4319697517        1.1929572491       -0.6127573425
 H         -6.3639727351        1.0862894026       -1.1720262901
 H         -4.9599387104        0.2082257251       -0.5849116223
 C         -5.7459006137        1.6435107592        0.8207559783
 H         -5.5444161061        2.7100198473        0.9275713498
 H         -6.8112860512        1.4953622723        1.0096081209
 C         -4.9909602156        0.8742595888        1.9063960536
 H         -5.1181713272       -0.1999395556        1.7494826180
 H         -5.4413907443        1.1184490355        2.8723383602
 C         -3.4897464746        1.1711598180        2.0133373876
 H         -3.3328345570        2.2492368170        2.0877233797
 H         -3.1254213506        0.7074639378        2.9350226314
 H         -5.0631887694        3.0992599300       -1.5472658176
 H         -4.3403404948        1.7144335324       -2.3761008533
 H         -3.3509456732        3.0778934917        0.1600225680
 H         -2.5501608462        2.9743645787       -1.4197752807
 O         -1.7471671839        0.6600669274       -1.2890511044
 C         -1.0878566813       -0.5489154987       -1.1276323930
 O         -0.4172843860       -0.9046865608       -2.1122868071
 H          0.8955897600       -0.7548430737        1.6209359224
 C          1.5327142577       -1.3034589446        0.9377626305
 C          0.9741677219       -2.3054852109        0.1523462167
 C          1.8028977517       -3.0041065361       -0.7141423085
 C          3.1491412255       -2.6901315367       -0.8028595006
 C          3.6979694088       -1.6846162315       -0.0287056152
 C          2.8786274259       -0.9894932046        0.8518711825
 N          3.4252958320        0.0461084529        1.6433222821
 S          3.9940742941        1.3775980396        0.7990794960
 O          5.1695784002        0.9920192203        0.0615457602
 O          4.1719465247        2.4145227462        1.7903238810
 C          2.6808273513        1.8176799771       -0.3235816026
 C          2.6404889333        1.2422539146       -1.5774929860
 C          1.5929334692        1.5602912445       -2.4261757189
 C          0.6094306413        2.4423452955       -2.0078975894
 C          0.6585140986        3.0044593004       -0.7415987077
 C          1.7009571875        2.6864699622        0.1132231618
 H          1.7799944953        3.1090954859        1.1024243369
 H         -0.1130506232        3.6841033382       -0.4156798928
 H         -0.2044759259        2.6820455325       -2.6737223035
 H          1.5372172290        1.1088501480       -3.4030623628
 H          3.4257618723        0.5645347074       -1.8698503216
 H          2.7907417808        0.3627899192        2.3636470441
 H          4.7391278763       -1.4147304430       -0.1008374796
 H          3.7796228450       -3.2356883752       -1.4884646728
 H          1.3945644379       -3.7874048493       -1.3308774738
 C         -0.5102621817       -2.5424409766        0.2756846099
 H         -0.7237979714       -2.8495425818        1.3101963413
 C         -1.0451504151       -3.5978797662       -0.6675413172
 C         -0.9349233081       -5.0492047962       -0.3104211426
 C         -2.2690521130       -4.3679176304       -0.2751888528
 H         -2.9936711410       -4.6091746271       -1.0384173228
 H         -2.7073638279       -4.1485856072        0.6876579071
 H         -0.7454493940       -5.7621506869       -1.0984802679
 H         -0.4683985478       -5.2984117999        0.6306589516
 H         -0.9452106880       -3.3165729019       -1.7094893004
 O         -2.0734469235       -1.2507672138        2.2884380081
