  62
        -98.94795412
 C          1.2086174091        1.1062617903        0.0323458211
 C          1.6009927887        0.0420357197        0.8777763105
 C          2.5759013087       -0.9019063201        0.3179227502
 C          2.9989056090       -0.7344396794       -0.9483258996
 C          4.0164428590       -1.5998450891       -1.6324937799
 C          5.4380854491       -1.0553938695       -1.4343631392
 C          5.7761571788       -0.7256174304        0.0194402711
 H          6.8115585288       -0.3791930306        0.0418414916
 H          5.1503377788        0.1065071295        0.3495614815
 C          5.6086461884       -1.9015417810        0.9917121903
 H          5.5817666083       -2.8400560406        0.4368350597
 H          6.4788732782       -1.9386552615        1.6503208005
 C          4.3738317881       -1.8093625513        1.8896315401
 H          4.3483447382       -0.8314953716        2.3768174307
 H          4.4666023178       -2.5648612318        2.6743457496
 C          3.0250695083       -2.0367121707        1.1950939696
 H          3.0517417183       -2.9708458903        0.6293022790
 H          2.2623759981       -2.1327777711        1.9739403994
 H          6.1456286591       -1.7933357593       -1.8168254595
 H          5.5440164794       -0.1436481391       -2.0267494386
 H          3.9440406988       -2.6129778793       -1.2408669705
 H          3.7869736893       -1.6187404484       -2.6994821399
 O          2.5750063494        0.2802916612       -1.7438028691
 C          1.6657618694        1.2209644410       -1.2802675487
 O          1.3536316897        2.0890547016       -2.1176034483
 H         -0.8666953710       -0.0538373490       -0.6303107301
 C         -1.4965849708        0.8119766112       -0.7607424798
 C         -1.0881505407        2.0394612008       -0.2590955589
 C         -1.9027521605        3.1447948111       -0.4759951084
 C         -3.0835449503        3.0152156717       -1.1862823688
 C         -3.4898958704        1.7868994821       -1.6755938797
 C         -2.6839163106        0.6747345118       -1.4613497401
 N         -3.0489952907       -0.5905504378       -1.9419035110
 S         -2.6295904911       -1.9675634384       -1.0951948618
 O         -1.2255053611       -2.2551828785       -1.2553636516
 O         -3.5393559912       -2.9767907979       -1.5953537726
 C         -3.0180187815       -1.5984461694        0.6061015384
 C         -2.0153666217       -1.4298073601        1.5377112887
 C         -2.3568368320       -1.0895259109        2.8372871189
 C         -3.6889341120       -0.9290532309        3.1830967686
 C         -4.6876120718       -1.1145149601        2.2383381183
 C         -4.3514567716       -1.4482735094        0.9371772281
 H         -5.0990592114       -1.6095197388        0.1776949579
 H         -5.7236200219       -0.9953170401        2.5114265081
 H         -3.9489307422       -0.6605493514        4.1948619187
 H         -1.5695255721       -0.9427715814        3.5596220191
 H         -0.9839280917       -1.5538670301        1.2472313589
 H         -3.9723838406       -0.6517298574       -2.3436879613
 H         -4.4122030103        1.6882967026       -2.2268472799
 H         -3.7015804102        3.8837000619       -1.3557348784
 H         -1.6084112704        4.1090965408       -0.0953721878
 C          0.1911397491        2.1084489602        0.5408826615
 H         -0.0434299112        1.7880700296        1.5682899812
 C          0.7877341493        3.5007271300        0.5907144725
 C          0.3882974692        4.4632759294        1.6680781130
 C          1.7483368391        3.8355416492        1.6913661729
 H          2.6074000992        4.4466819092        1.4585704635
 H          1.9456397688        3.0679884587        2.4256522725
 H          0.3149829794        5.5115773496        1.4204209636
 H         -0.3332756510        4.1281507491        2.3977045926
 H          1.0021215896        3.8940142806       -0.3965742372
 O          1.1494977684       -0.1151139409        2.0449928003
