  62
        -98.94598692
 C         -2.0392846402       -0.0682763569        0.5084886091
 C         -1.5905784692        1.0578846030        1.2427721487
 C         -1.5235516178        2.3277180126        0.5119472281
 C         -1.8247883375        2.3561621223       -0.7985840919
 C         -1.8050222961        3.5704710619       -1.6870494825
 C         -0.4126293556        3.9061487203       -2.2388520123
 C          0.5500179848        4.5319576097       -1.2289081824
 H          1.3937989153        4.9307421386       -1.7956238524
 H          0.0615176756        5.3721323604       -0.7332954428
 C          1.0847346536        3.5478140596       -0.1793364618
 H          2.1639522137        3.6834745986       -0.0698244317
 H          0.9320548326        2.5259989596       -0.5373071314
 C          0.4652694835        3.7055775809        1.2096376680
 H          0.7226760844        4.6880595708        1.6120758876
 H          0.9005335526        2.9501753707        1.8675195484
 C         -1.0603672267        3.5484448024        1.2505430377
 H         -1.3641169470        3.4381071232        2.2947919977
 H         -1.5390612857        4.4375063627        0.8398254772
 H         -0.5477816547        4.6070110300       -3.0662903726
 H          0.0316379736        2.9922873996       -2.6426162118
 H         -2.2028697153        4.4308186426       -1.1474356629
 H         -2.4656426361        3.3501571422       -2.5284953725
 O         -2.2124931685        1.2489735624       -1.4806420315
 C         -2.2977147199        0.0089249328       -0.8622907210
 O         -2.6261187706       -0.9112592072       -1.6348378007
 O         -1.2559275095        1.0043284432        2.4574990288
 C         -2.0670681417       -1.4129985766        1.2196194196
 C         -1.2948413026       -2.4019641277        0.3835203002
 C         -1.8051917437       -3.5923850074       -0.1127475694
 C         -1.0379715743       -4.3745794485       -0.9601178889
 C          0.2267669262       -3.9755294100       -1.3505891188
 C          0.7499805373       -2.7881313403       -0.8480716592
 C          0.0051675579       -2.0446719292        0.0481372703
 H          0.4100390287       -1.1257950994        0.4405582600
 N          2.0219033978       -2.3353832618       -1.2238175291
 S          2.4037072595       -0.7040853622       -1.2580875397
 O          1.2546680704        0.1385380589       -1.4895452803
 O          3.4672453998       -0.6144363037       -2.2373895295
 C          3.1013551394       -0.4217184522        0.3566562703
 C          2.4293539400        0.3286825789        1.2991395098
 C          3.0013269599        0.5084622389        2.5490696899
 C          4.2322209293       -0.0610448423        2.8338429004
 C          4.8992943087       -0.8090552734        1.8748937108
 C          4.3306020488       -0.9930274633        0.6255741608
 H          4.8184148184       -1.5571222542       -0.1517334188
 H          5.8578900882       -1.2487281242        2.0983082812
 H          4.6723976892        0.0813476977        3.8080998004
 H          2.4744970204        1.0875534897        3.2912518395
 H          1.4715443305        0.7610913098        1.0526190794
 H          2.4502856175       -2.8412156425       -1.9843402788
 H          0.8009605557       -4.5661805109       -2.0481897084
 H         -1.4453566552       -5.2958480683       -1.3487301686
 H         -2.8117095540       -3.8909505563        0.1303972505
 H         -1.5038059318       -1.2375544267        2.1520122697
 C         -3.4471338923       -1.8965884550        1.6331107796
 C         -4.5563386414       -0.9231701537        1.8952397689
 C         -4.6301624421       -1.8433141242        0.7155382593
 H         -5.3383589329       -2.6585500534        0.7479031195
 H         -4.4795567615       -1.4344559947       -0.2708577009
 H         -5.2124359418       -1.1039400527        2.7334239388
 H         -4.3548782003        0.1228217960        1.7135611185
 H         -3.3911471733       -2.7499947147        2.3021347499
