  62
        -98.93292969
 C         -2.2579518075       -1.2337853338        0.1227600173
 C         -3.1878718729       -0.6033696803        0.9868963351
 C         -4.1522145305        0.3124825979        0.3590911271
 C         -4.0757933213        0.5312087028       -0.9661228940
 C         -4.9360422279        1.4855159900       -1.7448193124
 C         -4.4596333159        2.9343671744       -1.5177189407
 C         -5.4665761025        3.8209389193       -0.7846539487
 H         -4.9466240759        4.7368830630       -0.4957836605
 H         -6.2642509259        4.0991031261       -1.4765522841
 C         -6.1177431853        3.2044843184        0.4571472664
 H         -6.9197871820        2.5295347945        0.1547897011
 H         -6.5894225544        4.0212200010        1.0076276755
 C         -5.1750995476        2.4521256239        1.4054301555
 H         -4.1511203443        2.8104215859        1.2951952519
 H         -5.4784885745        2.6718512115        2.4311808681
 C         -5.1993529660        0.9198894428        1.2515118272
 H         -5.0247494125        0.4690139697        2.2331020969
 H         -6.1912370672        0.6031139384        0.9168473151
 H         -4.2327183959        3.3977048712       -2.4789957462
 H         -3.5233583683        2.9033548399       -0.9561651519
 H         -4.8465111403        1.2171396271       -2.7975914446
 H         -5.9749454695        1.3724811496       -1.4428036398
 O         -3.1323836406       -0.0456289648       -1.7533036799
 C         -2.1994563921       -0.9393108484       -1.2399880916
 O         -1.3999841802       -1.3739381521       -2.0877261217
 H          0.0020773099        0.1124754797        0.9248767195
 C          0.6357770859       -0.6348910969        0.4605181695
 C          0.1327878726       -1.9160434031        0.2636683327
 C          0.9566581059       -2.8628173765       -0.3291991919
 C          2.2427138547       -2.5288014487       -0.7177599727
 C          2.7343621320       -1.2514838604       -0.5264367227
 C          1.9188790211       -0.2949174459        0.0644836451
 N          2.4129854700        1.0122682932        0.2524206594
 S          3.7803940609        1.1669572708        1.2208530495
 O          3.8419790950        0.1173879910        2.2125107263
 O          3.7382671120        2.5232928124        1.7232985448
 C          5.1403989511        1.0104275539        0.0835352792
 C          6.0710222161        0.0053434858        0.2601099682
 C          7.1289123259       -0.0916000435       -0.6304926158
 C          7.2365988621        0.8134297903       -1.6753548231
 C          6.2942671361        1.8183527930       -1.8373915103
 C          5.2350367769        1.9218085579       -0.9499510496
 H          4.4843959055        2.6896587271       -1.0369134332
 H          6.3815592861        2.5203539822       -2.6509829677
 H          8.0599718721        0.7356557243       -2.3676843225
 H          7.8626456640       -0.8717002026       -0.5061088488
 H          5.9426327928       -0.6778111910        1.0843196509
 H          1.7057596196        1.6647153730        0.5599760914
 H          3.7319049157       -0.9857346927       -0.8362739941
 H          2.8690222836       -3.2747389880       -1.1826964846
 H          0.5872481970       -3.8594914616       -0.5047242908
 C         -1.2688055663       -2.2041709090        0.7416828934
 H         -1.3028537319       -1.9743580173        1.8208156104
 C         -1.6651586322       -3.6670397845        0.6043413313
 C         -3.0978894707       -4.0692238053        0.4259279110
 C         -2.1228043828       -4.2549569788       -0.6956996635
 H         -1.8119189991       -5.2600004425       -0.9408241954
 H         -2.1828293404       -3.5956112601       -1.5470517260
 H         -3.8335128311       -3.2825014586        0.3402185345
 H         -3.4532453419       -4.9424769179        0.9521587276
 H         -1.0669957729       -4.3080510486        1.2448564618
 O         -3.2090326092       -0.7982248549        2.2326641415
