  62
        -98.94870003
 C         -1.4706153811       -1.3917626712       -0.3622086278
 C         -0.3529979095       -1.6687761547       -1.1838508278
 C          0.6232792171       -2.6174110074       -0.6385554868
 C          0.4452046808       -3.1203510770        0.5964319439
 C          1.3338828577       -4.1239576801        1.2804380450
 C          2.5638519437       -3.5077580710        1.9596701939
 C          3.6695090804       -3.0515598647        1.0075167630
 H          4.5583283993       -2.8692478679        1.6151488726
 H          3.9080830957       -3.8581955440        0.3131435840
 C          3.3417447016       -1.7723145079        0.2249551015
 H          2.5256020781       -1.2380972728        0.7197419010
 H          4.2125770971       -1.1112611420        0.2468301604
 C          2.9816152527       -1.9948398122       -1.2445787381
 H          2.7056246361       -1.0300655247       -1.6774152093
 H          3.8557848752       -2.3718870570       -1.7808152179
 C          1.8167189792       -2.9640847504       -1.4773397766
 H          2.1335526462       -3.9877930980       -1.2776816754
 H          1.5159397885       -2.8877028538       -2.5253598766
 H          2.2391479781       -2.6600993324        2.5685958129
 H          2.9790035490       -4.2628415573        2.6316960748
 H          0.7228430712       -4.6068197833        2.0462035358
 H          1.6536858527       -4.8804920089        0.5627597059
 O         -0.6142968213       -2.7849913132        1.3788895637
 C         -1.5869390474       -1.9049334504        0.9292736028
 O         -2.4937127887       -1.6791942654        1.7544416128
 O         -0.1873161932       -1.1583962251       -2.3251120184
 C         -2.5389878177       -0.4357389591       -0.8643409788
 C         -2.5872297556        0.7652450318        0.0462365997
 C         -3.7477137988        1.2571976946        0.6272324593
 C         -3.6878484359        2.3290294562        1.5019386079
 C         -2.4802996598        2.9231377447        1.8175829269
 C         -1.3148423267        2.4493689919        1.2233985472
 C         -1.3815122198        1.3963392703        0.3276780586
 H         -0.4753801474        1.0208269658       -0.1254011712
 N         -0.0767265607        3.0490635406        1.4894442161
 S          1.3647121647        2.2396513301        1.2771319668
 O          1.2714229443        0.8383778699        1.6196648486
 O          2.3229586497        3.0053324575        2.0485010856
 C          1.7541587830        2.4348862405       -0.4513438935
 C          2.8582191675        1.7521465473       -0.9217216929
 C          3.2252316962        1.8924024681       -2.2502558232
 C          2.4848060904        2.7147701120       -3.0848147740
 C          1.3836218659        3.3997222052       -2.5965959947
 C          1.0126478572        3.2646835144       -1.2674377244
 H          0.1565874537        3.7825764191       -0.8680431649
 H          0.8081846614        4.0386736605       -3.2471082453
 H          2.7673856395        2.8202611226       -4.1203414642
 H          4.0826616997        1.3583779434       -2.6278292327
 H          3.4029715819        1.1206874019       -0.2384431222
 H         -0.0533173850        3.7075520717        2.2525829553
 H         -2.4335862052        3.7419110460        2.5190425658
 H         -4.5947286882        2.6971273206        1.9573003577
 H         -4.6954655157        0.7921789080        0.4120019401
 H         -2.1942750702       -0.1064103380       -1.8557996093
 C         -3.8679614230       -1.1438590383       -1.0159656876
 C         -4.8775455166       -0.6458722064       -2.0056667080
 C         -4.1371030380       -1.9217289817       -2.2679847865
 H         -4.6712765817       -2.8565675452       -2.1884679052
 H         -3.3672639982       -1.9225308775       -3.0256804367
 H         -5.9243326361       -0.7060959831       -1.7489487076
 H         -4.6152635226        0.2212213147       -2.5923551591
 H         -4.2257365999       -1.5610121195       -0.0813105970
