  62
        -98.93624810
 C         -1.7085161246       -1.3686082818       -0.2707843702
 C         -3.0577047142       -1.3905413600        0.1667746058
 C         -3.9191553813       -0.3071524187       -0.3223728959
 C         -3.4035126748        0.6162788458       -1.1537806056
 C         -4.1495413879        1.8052574506       -1.6848431659
 C         -3.9758036224        3.0246115764       -0.7684025793
 C         -4.2253555402        2.7264125325        0.7100227043
 H         -3.4565982156        2.0391572219        1.0707971949
 H         -4.1009190287        3.6637034339        1.2565436058
 C         -5.6112242178        2.1395430172        1.0126417448
 H         -6.2854561179        2.3315454975        0.1771764660
 H         -6.0241192938        2.6492699731        1.8857235072
 C         -5.6128017965        0.6428852952        1.3300685354
 H         -4.8714629923        0.4317093470        2.1048802244
 H         -6.5937067035        0.3829199742        1.7368389170
 C         -5.3480107468       -0.2921460132        0.1429762994
 H         -5.5690709715       -1.3130050408        0.4679411975
 H         -6.0197131679       -0.0415318121       -0.6805629736
 H         -4.6577532203        3.8080666628       -1.1038087614
 H         -2.9540708054        3.3954106659       -0.8760219333
 H         -3.7553481546        2.0450504310       -2.6738421658
 H         -5.2043578949        1.5538657006       -1.7767510069
 O         -2.1131370684        0.5954374089       -1.5687408238
 C         -1.2290375088       -0.3864521618       -1.1364525517
 O         -0.0795635744       -0.2567754946       -1.5910280236
 H          1.8823329722       -1.7571968739       -0.4673693142
 C          1.6126778076       -1.5625512102        0.5540940839
 C          0.3432005908       -1.8435411166        1.0380092166
 C          0.0572385215       -1.5035170793        2.3619626561
 C          1.0057298709       -0.9181997559        3.1760584191
 C          2.2768678759       -0.6635598980        2.6924561975
 C          2.5775407199       -0.9900611762        1.3765609885
 N          3.8797224360       -0.7885877089        0.8835178954
 S          4.1700422233        0.0388736587       -0.5420017362
 O          3.5739769647       -0.6562214583       -1.6508404615
 O          5.6105862694        0.1814792561       -0.5780805004
 C          3.4316248024        1.6413431191       -0.2826452863
 C          2.0838539139        1.8194282558       -0.5175818997
 C          1.5188435167        3.0537950115       -0.2325132180
 C          2.3006461504        4.0778072287        0.2784945873
 C          3.6544771522        3.8805074719        0.5064519765
 C          4.2261006937        2.6499089442        0.2290629843
 H          5.2746846768        2.4530394339        0.3842589081
 H          4.2623159797        4.6791621799        0.9002032272
 H          1.8520404102        5.0341186562        0.4974641002
 H          0.4655256243        3.2011619954       -0.4140912926
 H          1.4960205926        1.0104719350       -0.9235107689
 H          4.5311242521       -0.4693801057        1.5870382622
 H          3.0304876902       -0.2224995234        3.3271404996
 H          0.7578364138       -0.6647478134        4.1955585515
 H         -0.9328664077       -1.7065953689        2.7466582372
 C         -0.7852724880       -2.4627970280        0.2505666776
 H         -1.4101000090       -2.9938378615        0.9873317177
 C         -0.4919377059       -3.5035312401       -0.8211974598
 C          0.4325533528       -3.3604411146       -1.9912421502
 C          0.7649032389       -4.3178855365       -0.8858958721
 H          0.6784949561       -5.3761362616       -1.0837876229
 H          1.5710544964       -4.0612846620       -0.2164768421
 H          0.0985120286       -3.7700378106       -2.9348742692
 H          1.0033534842       -2.4539612817       -2.1093354422
 H         -1.4092892465       -4.0458396920       -1.0429757901
 O         -3.5190187842       -2.2763609654        0.9359331631
