  62
        -98.93659569
 C         -1.8956060967       -1.5098024685        0.1006712760
 C         -1.6960106216       -0.1145034180        0.2011226491
 C         -2.8983900797        0.7192116404        0.4177868306
 C         -4.0957719332        0.1177782529        0.5379032144
 C         -5.4497706347        0.7510666448        0.7203080120
 C         -5.9925652251        1.3760011046       -0.5742537900
 C         -4.9816106829        2.2097091720       -1.3567362125
 H         -5.4583226740        2.5173523933       -2.2912523519
 H         -4.1282004511        1.5827521343       -1.6214402077
 C         -4.4883240395        3.4683689035       -0.6467452611
 H         -5.3450047697        4.0997457308       -0.4010042746
 H         -3.8656566433        4.0169274790       -1.3581152424
 C         -3.6672170681        3.2420333043        0.6251305644
 H         -4.3073241555        3.0099076177        1.4720758811
 H         -3.1701940433        4.1870085423        0.8628070157
 C         -2.5696463079        2.1911806428        0.4933029190
 H         -1.8849453850        2.2915538711        1.3441439814
 H         -1.9650009314        2.4139832846       -0.3935573525
 H         -6.8585879677        1.9907404016       -0.3227813986
 H         -6.3320941195        0.5661116436       -1.2248919051
 H         -5.4156759523        1.4862198770        1.5188303022
 H         -6.1278381936       -0.0466866687        1.0318890201
 O         -4.2354411756       -1.2382593998        0.4711249158
 C         -3.1605681413       -2.0786352359        0.2623236615
 O         -3.4491000899       -3.2922385145        0.2513338858
 O         -0.5694905865        0.4378295783        0.1130809556
 C         -0.7393950426       -2.4672953131       -0.1270368218
 C          0.4316758615       -2.0939522653        0.7496514762
 C          0.2486272514       -2.0745531839        2.1306824362
 C          1.2888320139       -1.7450368955        2.9765799500
 C          2.5361484611       -1.4318127321        2.4645610579
 C          2.7332985263       -1.4559205617        1.0892853348
 C          1.6846804426       -1.7910673424        0.2412713290
 H          1.8609955648       -1.7826117146       -0.8207331841
 N          4.0049131971       -1.1917681774        0.5546497083
 S          4.2711792440       -0.2065375597       -0.7681089004
 O          3.5152918690       -0.6780385071       -1.8994446720
 O          5.7102589219       -0.2024362829       -0.9218740234
 C          3.7355870931        1.4239176012       -0.2788178145
 C          2.3882915941        1.6861609722       -0.1328266609
 C          1.9996671205        2.9512579967        0.2812274577
 C          2.9512814650        3.9254986415        0.5378162477
 C          4.3009549529        3.6439264629        0.3867019500
 C          4.6985237475        2.3813246144       -0.0208125182
 H          5.7354555344        2.1172344037       -0.1523348590
 H          5.0416353956        4.4017040481        0.5862318678
 H          2.6393394189        4.9077049329        0.8568619576
 H          0.9472009974        3.1533867210        0.4010926746
 H          1.6515309330        0.9234682699       -0.3271525543
 H          4.7163200942       -1.0212348936        1.2508268974
 H          3.3508959056       -1.1745809509        3.1244076804
 H          1.1290643388       -1.7288924993        4.0443168452
 H         -0.7277160961       -2.3158768135        2.5300323832
 H         -1.1115827810       -3.4482781111        0.2139393938
 C         -0.3557342397       -2.6332207266       -1.5900396102
 C         -1.3619638629       -2.4592506573       -2.6871310445
 C         -0.2508463373       -1.4679027229       -2.5252550930
 H          0.5539096849       -1.4603747409       -3.2463696431
 H         -0.4864531286       -0.4914547450       -2.1328964649
 H         -1.3294264290       -3.1411022898       -3.5236460336
 H         -2.3619014305       -2.1588823164       -2.4084056417
 H          0.3668919146       -3.4319490852       -1.7304767741
