  62
        -98.93576641
 C          2.3495530799        1.0695506989        0.1189415007
 C          3.6025329698        1.0388578780        0.7828969209
 C          4.6371440798        0.1539977185        0.2201749601
 C          4.3354782998       -0.5960511204       -0.8532796007
 C          5.2159779197       -1.5924004498       -1.5560008216
 C          4.9966417294       -3.0081665404       -0.9963230331
 C          5.8579248093       -3.3626681717        0.2152425567
 H          5.5161902591       -4.3326774720        0.5835663657
 H          6.8953738193       -3.4806437115       -0.1046320733
 C          5.8120459293       -2.3549712429        1.3666270077
 H          6.1369704391       -2.8678855138        2.2738951672
 H          4.7823735393       -2.0313404729        1.5299394679
 C          6.7137875995       -1.1333286228        1.1355482890
 H          7.3581153194       -0.9894210937        2.0053632292
 H          7.3741986795       -1.3313102520        0.2915969589
 C          5.9725545697        0.1920883876        0.9123980003
 H          5.7680739296        0.6611608766        1.8800388807
 H          6.6277138499        0.8792563280        0.3660983711
 H          5.2083910694       -3.7327758396       -1.7853259538
 H          3.9386176494       -3.1066605405       -0.7391207133
 H          4.9157405298       -1.5840750987       -2.6060451116
 H          6.2596152398       -1.2997613400       -1.4882177712
 O          3.1056060199       -0.5733988496       -1.4346159208
 C          2.0852536299        0.2501655101       -0.9797236301
 O          1.0338607100        0.1484418209       -1.6396620503
 H         -0.9208734198        1.9494607004       -0.9203236087
 C         -1.0395099100        1.3376061796       -0.0397913494
 C         -0.0082040902        1.2558756685        0.8812608307
 C         -0.1679329404        0.4303682574        1.9902346398
 C         -1.3351952105       -0.2868818626        2.1726051189
 C         -2.3632643604       -0.2038554516        1.2494601989
 C         -2.2033602002        0.5980999896        0.1279498697
 N         -3.2320230900        0.6894967907       -0.8221185003
 S         -4.1089303402       -0.6756653888       -1.2405812518
 O         -3.3375419204       -1.8898685390       -1.1113473029
 O         -4.6415969500       -0.3875638474       -2.5547912615
 C         -5.4503194503       -0.6751445398       -0.0665473119
 C         -6.1833891502        0.4858483702        0.0838262092
 C         -7.2360435503        0.5015816494        0.9846417090
 C         -7.5395234005       -0.6385174913        1.7138159779
 C         -6.7973493207       -1.7976526012        1.5486652568
 C         -5.7420432306       -1.8192046105        0.6497943169
 H         -5.1346307807       -2.6965981404        0.4926390961
 H         -7.0349425309       -2.6836104318        2.1153878658
 H         -8.3591427906       -0.6236938319        2.4147177578
 H         -7.8152358802        1.4013943394        1.1157369899
 H         -5.9175064600        1.3489054307       -0.5031868399
 H         -2.9768681399        1.2198432315       -1.6425023897
 H         -3.2698097005       -0.7720794116        1.3781615782
 H         -1.4474681407       -0.9198100735        3.0398603983
 H          0.6400711195        0.3515304465        2.7045576598
 C          1.2893174900        1.9967146185        0.6886682516
 H          1.6764360199        2.2692181974        1.6836819819
 C          1.1146157103        3.3004302893       -0.0770252471
 C          2.3040409504        4.0158467297       -0.6421823863
 C          1.2858147404        3.4135002408       -1.5610824470
 H          0.6268505906        4.0790297114       -2.1001659864
 H          1.5485310104        2.5238380613       -2.1119290779
 H          3.2637743303        3.5275116694       -0.5554363867
 H          2.3501314606        5.0908425696       -0.5557514452
 H          0.3438627103        3.9226612689        0.3679792534
 O          3.8483958098        1.7254080570        1.8105540816
