  62
        -98.93188911
 C         -2.4188488569       -0.4699416003        0.4212978434
 C         -3.1953503532       -0.3718369298       -0.7579285389
 C         -4.3289672085        0.5749941199       -0.7139555950
 C         -4.5383325281        1.3050817249        0.3938721929
 C         -5.6548007491        2.2781677801        0.6534370042
 C         -6.8221283683        1.5837198069        1.3752026330
 C         -7.8395647908        0.9103006143        0.4548337989
 H         -8.4204158109        1.6782739326       -0.0603204624
 H         -8.5294478121        0.3486180316        1.0889999973
 C         -7.2495020484       -0.0392959337       -0.5911619042
 H         -8.0435742717       -0.7152735574       -0.9145575562
 H         -6.4704839602       -0.6523165646       -0.1341275219
 C         -6.6878021900        0.6904177852       -1.8204746995
 H         -7.0288795701        1.7254571138       -1.8052937754
 H         -7.1015225678        0.2418663348       -2.7260392500
 C         -5.1588790901        0.6524397141       -1.9666278830
 H         -4.8343715710        1.5225895370       -2.5467668518
 H         -4.8703833012       -0.2315796250       -2.5439822228
 H         -7.3509473115        2.3235750122        1.9795652584
 H         -6.3992938376        0.8446222570        2.0607233989
 H         -5.9844398511        2.7429384610       -0.2709276477
 H         -5.2488634398        3.0495620797        1.3111438400
 O         -3.7454941418        1.2037523371        1.4967758086
 C         -2.6866412323        0.3197737079        1.5423777850
 O         -2.0637585400        0.3199659926        2.6242052766
 O         -2.9781264844       -1.0349429862       -1.8036916001
 C         -1.2429822548       -1.4218541217        0.5679927960
 C          0.0306299074       -0.7884038470        0.0707100431
 C          0.1242095115       -0.2580293147       -1.2123380283
 C          1.3091893491        0.3027131452       -1.6527667322
 C          2.4188244048        0.3527008443       -0.8267836176
 C          2.3339540152       -0.1660928452        0.4577608002
 C          1.1442708192       -0.7337911762        0.8957894364
 H          1.0797185374       -1.1286953493        1.9012928425
 N          3.4546554464       -0.1024396295        1.3043838549
 S          4.9031997095       -0.7332748817        0.7329576859
 O          4.6722356331       -1.7948797802       -0.2190330027
 O          5.6561519688       -1.0834375755        1.9173374147
 C          5.6897686713        0.6478239033       -0.0680693906
 C          5.8798677951        1.8044023842        0.6626433956
 C          6.5039024540        2.8829269503        0.0564767161
 C          6.9277822990        2.7861235500       -1.2607503093
 C          6.7318100783        1.6169875920       -1.9797047104
 C          6.1070583766        0.5346039729       -1.3797100904
 H          5.9280642918       -0.3922328777       -1.9010658312
 H          7.0619438051        1.5437424049       -3.0034800992
 H          7.4137964701        3.6271394047       -1.7296419003
 H          6.6576095642        3.7941746188        0.6117601207
 H          5.5389700519        1.8383017505        1.6840041603
 H          3.2727053843       -0.4236201707        2.2444884131
 H          3.3435689421        0.7896857893       -1.1668545792
 H          1.3697962422        0.7069965267       -2.6518428798
 H         -0.7392814870       -0.2979079419       -1.8588120281
 H         -1.1335083041       -1.5693658367        1.6544809221
 C         -1.5052405859       -2.7927194361       -0.0423924553
 C         -0.7975014241       -3.3244874408       -1.2483519255
 C         -0.4836224274       -3.8818676364        0.1053309610
 H         -0.8177237626       -4.8785523037        0.3510811172
 H          0.4677646386       -3.6153744962        0.5427837952
 H         -1.3719620554       -3.9227926559       -1.9388158339
 H         -0.0550733573       -2.7046423926       -1.7252377421
 H         -2.5436282557       -3.0884862923        0.0682798414
