  62
        -98.94781813
 C         -1.0701953297       -1.2157532295        0.0642333915
 C         -1.5534812506       -0.2016985579        0.9239021536
 C         -2.4410685853        0.7946114015        0.3107792849
 C         -2.7252705728        0.7024365252       -1.0012415479
 C         -3.6406571800        1.6305888068       -1.7450125084
 C         -5.0868923764        1.1160584997       -1.7369341843
 C         -5.5929430253        0.7200997427       -0.3497961135
 H         -6.6317680605        0.4023953547       -0.4616720653
 H         -5.0270303114       -0.1460084187        0.0006788240
 C         -5.5097329012        1.8382814676        0.6985619834
 H         -6.4468189681        1.8635875048        1.2586527521
 H         -5.4025641134        2.8036002484        0.2023899172
 C         -4.3844671338        1.6661408525        1.7202034047
 H         -4.4330085806        0.6633985673        2.1517988441
 H         -4.5496522210        2.3809347167        2.5306573817
 C         -2.9619726477        1.8943244418        1.1934746368
 H         -2.9070235148        2.8574788644        0.6807149238
 H         -2.2911729746        1.9273702355        2.0572858110
 H         -5.1451572623        0.2399720459       -2.3870059721
 H         -5.7308323167        1.8922923291       -2.1545083907
 H         -3.2906501848        1.7002603847       -2.7766622437
 H         -3.5913379897        2.6193461444       -1.2922329980
 O         -2.2431437901       -0.2851274186       -1.7971406423
 C         -1.3952699177       -1.2610082285       -1.2918236615
 O         -1.0139233697       -2.0959692331       -2.1342413137
 O         -1.2493377291       -0.1274058097        2.1452905312
 C         -0.1071135184       -2.2439382471        0.6216249120
 C          1.2492557533       -2.1499794631       -0.0381838581
 C          2.1252094621       -3.2290704517       -0.0881216941
 C          3.3731885262       -3.0918511449       -0.6699423137
 C          3.7817935214       -1.8824802437       -1.2027932071
 C          2.9133832464       -0.7975814326       -1.1592734270
 C          1.6651896214       -0.9400505459       -0.5742311101
 H          0.9925195935       -0.0975411191       -0.5719227333
 N          3.2773245004        0.4382431366       -1.7052677927
 S          2.5746308955        1.8679597319       -1.2227422291
 O          1.2145166568        1.9566603572       -1.6951791460
 O          3.4811618807        2.8823366168       -1.7186614326
 C          2.6188112379        1.8458969422        0.5598494402
 C          1.4428925588        1.8665407701        1.2801283560
 C          1.4991819427        1.8060097764        2.6631306951
 C          2.7284639755        1.7362897746        3.2993569395
 C          3.9038870661        1.7334794971        2.5630160246
 C          3.8517063126        1.7841545100        1.1799020590
 H          4.7442524508        1.7876960097        0.5759604112
 H          4.8579044191        1.6851027742        3.0627449826
 H          2.7682997776        1.6843965199        4.3759427852
 H          0.5792662600        1.7887718038        3.2255239115
 H          0.5011547583        1.9155593961        0.7548245781
 H          4.2402885953        0.5365608205       -1.9865267912
 H          4.7538352862       -1.7789524888       -1.6593145670
 H          4.0403705889       -3.9394588094       -0.7071053969
 H          1.8255588544       -4.1792231988        0.3230690185
 H          0.0196101545       -1.9771419138        1.6827728820
 C         -0.7006868601       -3.6372277467        0.5406717128
 C         -0.4546109807       -4.6388364478        1.6283352956
 C         -1.8050632121       -4.0066918254        1.4843131970
 H         -2.6232497450       -4.6051266813        1.1126732635
 H         -2.1023346479       -3.2642943153        2.2107717210
 H         -0.3463055238       -5.6779333153        1.3558655928
 H          0.1558119545       -4.3327901822        2.4645274444
 H         -0.7754679273       -3.9956293740       -0.4798407917
