  62
        -98.93747154
 C         -2.1894343826       -0.8180112446       -0.1061117584
 C         -2.9182459983       -0.1230105837        0.8858077060
 C         -3.7064015599        1.0338762813        0.4295027790
 C         -3.6725903455        1.3827241117       -0.8682894008
 C         -4.3595364702        2.5424704947       -1.5453195034
 C         -5.8165539801        2.8293884904       -1.1563365404
 C         -6.6470998803        1.5920110659       -0.7857138718
 H         -7.5777044199        1.6059162439       -1.3559933631
 H         -6.1095368005        0.6832383590       -1.0616567762
 C         -7.0092037205        1.5392542720        0.7005513308
 H         -7.3101017956        2.5383142623        1.0235059446
 H         -7.8717736731        0.8810168851        0.8289696793
 C         -5.9074647328        1.0255259858        1.6265812692
 H         -5.7569924900       -0.0454257522        1.4651114832
 H         -6.2489925128        1.1484021438        2.6572622356
 C         -4.5415885576        1.7149123990        1.4753990053
 H         -4.6561892969        2.7769176599        1.2716767026
 H         -3.9998855496        1.5978605790        2.4182976495
 H         -5.8403464069        3.5336276745       -0.3257762828
 H         -6.2757967434        3.3338217578       -2.0081159127
 H         -3.7598667010        3.4409483684       -1.3723546758
 H         -4.3029975703        2.3195414589       -2.6134116391
 O         -2.9303520485        0.7011026093       -1.7863805938
 C         -2.1777728442       -0.4100475998       -1.4391571690
 O         -1.5581499815       -0.9277550913       -2.3863058968
 H          0.0461295334        0.1534393622        0.8323867076
 C          0.6638243300       -0.5950097697        0.3499482141
 C          0.0908222110       -1.8067012308       -0.0175796096
 C          0.8989667779       -2.7630036177       -0.6176786659
 C          2.2359516730       -2.4982258196       -0.8606690537
 C          2.7956787678       -1.2836027933       -0.5114606771
 C          2.0006541198       -0.3245030366        0.1030266239
 N          2.5572640109        0.9182663571        0.4543020976
 S          3.9754668027        0.9261625069        1.3544413890
 O          4.0793963334       -0.2494938211        2.1875587269
 O          3.9804622984        2.2009057742        2.0386522945
 C          5.2643837344        0.9216754073        0.1263397163
 C          6.2348730709       -0.0607852153        0.1494801733
 C          7.2331201102       -0.0389266398       -0.8122364559
 C          7.2434253756        0.9599700669       -1.7736906482
 C          6.2629359435        1.9410958394       -1.7811447673
 C          5.2628703408        1.9256479030       -0.8221101175
 H          4.4849171706        2.6702923605       -0.7912663025
 H          6.2738876166        2.7161133464       -2.5305661755
 H          8.0201402247        0.9744736393       -2.5219074295
 H          7.9965944088       -0.8001762175       -0.8078773168
 H          6.1829373803       -0.8204160134        0.9131124811
 H          1.8879483597        1.5653928019        0.8452751255
 H          3.8340968498       -1.0719565078       -0.7068176722
 H          2.8501686551       -3.2486847887       -1.3343003367
 H          0.4817173182       -3.7155304821       -0.8997321407
 C         -1.3693292930       -2.0304492645        0.2922985559
 H         -1.4737436112       -2.1079635040        1.3855347399
 C         -1.9405536993       -3.2822533309       -0.3404603733
 C         -1.8063620100       -4.6077871515        0.3457899049
 C         -3.1390741892       -3.9255462387        0.2881129337
 H         -3.9033395240       -4.3340285557       -0.3558985419
 H         -3.5247318092       -3.4768684165        1.1922257570
 H         -1.6577547629       -5.4891931353       -0.2595464884
 H         -1.2899924447       -4.6304030325        1.2936390609
 H         -1.8968359453       -3.2564410055       -1.4235203355
 O         -2.9001810055       -0.4447138073        2.1055158458
