  62
        -98.94576840
 C          2.0018484332        1.5136020963       -0.0621830506
 C          1.7045575615        0.2803032406       -0.6919152791
 C          2.8177241018       -0.6747176407       -0.7647861147
 C          4.0336529922       -0.3237610377       -0.3082984892
 C          5.2733247332       -1.1758668234       -0.3488739344
 C          5.3999291322       -2.1503152514        0.8301579452
 C          4.4350681466       -3.3361607472        0.7986930155
 H          4.5085197051       -3.8366655894       -0.1672462386
 H          4.7728211854       -4.0438058491        1.5585278888
 C          2.9718734084       -2.9674190447        1.0814778033
 H          2.9286714419       -1.9798811324        1.5465570443
 H          2.5505822721       -3.6753303565        1.7986909436
 C          2.0643271228       -2.9753292127       -0.1488108814
 H          1.0672448563       -2.6531470221        0.1614294015
 H          1.9902047868       -3.9930610430       -0.5380680902
 C          2.5247862998       -2.0499077690       -1.2827675814
 H          3.3991306819       -2.4671413096       -1.7816706467
 H          1.7112352696       -1.9629885328       -2.0066541081
 H          6.4211298214       -2.5385920386        0.8241920435
 H          5.2626481150       -1.5931962320        1.7599488745
 H          5.3060542502       -1.7312347780       -1.2865359670
 H          6.1231559612       -0.4903474377       -0.3209001101
 O          4.2881582494        0.8940698767        0.2425046016
 C          3.2745579644        1.8235367097        0.4147568533
 O          3.6280321938        2.8718536018        0.9928083424
 O          0.5771365262       -0.0083600756       -1.1676020196
 C          0.9027551671        2.5457321504        0.1185011579
 C         -0.2743812381        1.8921235126        0.7993115175
 C         -0.0638610136        1.2327260777        2.0078335923
 C         -1.0970361531        0.5738655505        2.6451432547
 C         -2.3651933646        0.5547635077        2.0905696284
 C         -2.5869611080        1.2150109166        0.8906480258
 C         -1.5488990688        1.8873763129        0.2576679529
 H         -1.7413075373        2.3921094755       -0.6759331622
 N         -3.8708920833        1.1954046558        0.3147076245
 S         -4.6222332458       -0.2918161938        0.1439353195
 O         -5.6236477883       -0.0874264963       -0.8792412385
 O         -5.1130683675       -0.7291507183        1.4271442557
 C         -3.3575510022       -1.4037500450       -0.4409027649
 C         -2.8386816179       -2.3637798852        0.4027768290
 C         -1.8402525116       -3.1993511193       -0.0707071272
 C         -1.3782380906       -3.0576975043       -1.3695252512
 C         -1.9062968589       -2.0847162001       -2.2026164787
 C         -2.9046514110       -1.2474219288       -1.7354599394
 H         -3.3451880134       -0.4865506968       -2.3597934115
 H         -1.5379173796       -1.9714420123       -3.2093349364
 H         -0.5987757954       -3.7076110318       -1.7347597575
 H         -1.4229352658       -3.9556468371        0.5751986694
 H         -3.2276304967       -2.4436739024        1.4048169722
 H         -3.9302578035        1.7148920615       -0.5494274887
 H         -3.1819563880        0.0373791939        2.5668776989
 H         -0.9147935316        0.0645290339        3.5795129177
 H          0.9304057137        1.2347429249        2.4347504455
 H          1.3091853495        3.3171078652        0.7880484736
 C          0.5683814012        3.1844279856       -1.2133639370
 C         -0.0166664973        4.5633077993       -1.2632264264
 C          1.4006346130        4.3338196483       -1.6928688108
 H          1.6384446813        4.3954340932       -2.7443040578
 H          2.1969474430        4.6722245941       -1.0460249983
 H         -0.7502464351        4.7882576068       -2.0229809728
 H         -0.1861112510        5.0686711042       -0.3244517595
 H          0.2456386448        2.4613269748       -1.9540165958
