  62
        -98.94136295
 C         -2.2065911439       -0.7074760466       -0.3514616943
 C         -3.4257488531       -0.9193305511        0.3407062753
 C         -4.1454039750        0.2863220012        0.7694293807
 C         -3.6029893133        1.4941369956        0.5298871088
 C         -4.2443870733        2.8060903878        0.8756358361
 C         -5.0999390724        3.3308138764       -0.2860795799
 C         -6.0639785826        2.2929827891       -0.8608683291
 H         -6.6353839605        2.7831944860       -1.6519783524
 H         -5.4872093841        1.4923255147       -1.3293667154
 C         -7.0297220525        1.6862309584        0.1665114542
 H         -7.0753791148        2.3209640377        1.0521616996
 H         -8.0318279312        1.6616404217       -0.2666419560
 C         -6.6910766173        0.2547302365        0.5865877245
 H         -7.5449508436       -0.1491617838        1.1369467595
 H         -6.5523154214       -0.3650012004       -0.3027856517
 C         -5.4552890713        0.0966012558        1.4815040730
 H         -5.5301130391        0.7724410773        2.3359477124
 H         -5.4453282404       -0.9308709637        1.8568707132
 H         -4.4325362760        3.6588945774       -1.0862718770
 H         -5.6621487750        4.1981612751        0.0645687135
 H         -4.8583547055        2.6803236370        1.7653878437
 H         -3.4544072200        3.5279593004        1.0900540474
 O         -2.4151331404        1.6582550792       -0.1045403132
 C         -1.6888782072        0.5699546523       -0.5670221341
 O         -0.6296701572        0.8807335341       -1.1453845681
 H          1.1152276163       -1.0409479001       -1.3509208886
 C          1.0336319623       -1.4866181181       -0.3723761400
 C         -0.1782201601       -2.0132224410        0.0449244896
 C         -0.2649023517       -2.5550975807        1.3245259156
 C          0.8342499642       -2.5655570660        2.1624346424
 C          2.0403480459       -2.0281162727        1.7468386954
 C          2.1332508873       -1.4781910549        0.4760262336
 N          3.3533187508       -0.9196618921        0.0427958707
 S          4.1144485256        0.1329159731        1.1250542593
 O          4.8627352519       -0.6565663808        2.0724366446
 O          3.1555631664        1.0535713209        1.6949542097
 C          5.2341247075        0.9880164023        0.0344151265
 C          6.5115783382        0.4935944008       -0.1460896370
 C          7.3647302377        1.1477814399       -1.0207117413
 C          6.9278342718        2.2768473244       -1.6971742235
 C          5.6420254472        2.7606812813       -1.5060908502
 C          4.7832283532        2.1108909954       -0.6336822184
 H          3.7775667296        2.4564064281       -0.4501429441
 H          5.3044251334        3.6391349681       -2.0323255722
 H          7.5929902391        2.7854533853       -2.3769860572
 H          8.3652919332        0.7761174346       -1.1716711532
 H          6.8069030289       -0.3826828603        0.4068015694
 H          3.2452104066       -0.4664113039       -0.8554922286
 H          2.9006288770       -2.0078480510        2.3964536951
 H          0.7521645704       -2.9884151896        3.1526730904
 H         -1.2133745818       -2.9508839229        1.6606163126
 C         -1.4223469877       -1.9291999971       -0.8039438729
 H         -2.0600843179       -2.7897601144       -0.5616114498
 C         -1.1547705932       -1.9231740935       -2.2940174780
 C         -0.6852003693       -3.1820981469       -2.9580080093
 C         -2.0736935769       -2.6767880220       -3.2063093073
 H         -2.3034699361       -2.2504577550       -4.1713168737
 H         -2.8996145224       -3.2078977694       -2.7563976146
 H          0.0397463241       -3.1068255227       -3.7538544315
 H         -0.5668811184       -4.0562317832       -2.3358481292
 H         -0.7641890740       -0.9805683995       -2.6573241190
 O         -3.8897056904       -2.0646571626        0.5864512596
