  62
        -98.94429736
 C          1.9865621299        1.3144330741        0.0456653456
 C          2.3015364179        0.3542592663       -0.9464556086
 C          3.7044403147       -0.0799953221       -0.9899742562
 C          4.6001573550        0.4456441827       -0.1355643322
 C          6.0677120923        0.1199222276       -0.0760906606
 C          6.3952365417       -1.1354272466        0.7439471152
 C          6.0100816723       -2.4611631784        0.0861781806
 H          6.4223282796       -2.4986493866       -0.9226721763
 H          6.4881713493       -3.2555396485        0.6627890430
 C          4.4991499966       -2.7288326818        0.0374037048
 H          3.9884179290       -2.0716563073        0.7453481645
 H          4.3001684582       -3.7547305416        0.3556968630
 C          3.8677362857       -2.5534714220       -1.3438431793
 H          2.7925755108       -2.7292544330       -1.2524507264
 H          4.2739006661       -3.3004267721       -2.0296730697
 C          4.0712751447       -1.1628648970       -1.9593418571
 H          5.1027711911       -1.0454187493       -2.2905342021
 H          3.4120398496       -1.0720053265       -2.8260800372
 H          5.9041257615       -1.0555996307        1.7165579343
 H          7.4740528114       -1.1398671581        0.9158614659
 H          6.5569260020        0.9753944164        0.3946412762
 H          6.4602771749        0.0082018560       -1.0871359757
 O          4.2615522768        1.3800200577        0.7917383535
 C          2.9533878795        1.8113805772        0.9246485833
 O          2.7785136701        2.6367725136        1.8431019406
 O          1.4720895486       -0.1196546608       -1.7665585513
 C          0.5684108851        1.8276095465        0.2440102584
 C         -0.2656930877        0.7183962660        0.8366749572
 C         -0.3183103355        0.5589206033        2.2179794401
 C         -1.0552628399       -0.4651925264        2.7848095603
 C         -1.7495140020       -1.3568083474        1.9852760492
 C         -1.6931020164       -1.2113251295        0.6060639747
 C         -0.9666049266       -0.1735086893        0.0389122376
 H         -0.9181767548       -0.0818144766       -1.0345794779
 N         -2.4023437372       -2.1165212203       -0.2151498819
 S         -4.0712369457       -2.0403533704       -0.0888344915
 O         -4.4660415774       -2.5342736456        1.2056841714
 O         -4.5875087388       -2.7557260523       -1.2333884043
 C         -4.4430411178       -0.3012800232       -0.2216050374
 C         -4.6192374470        0.2439425940       -1.4776279532
 C         -4.8261549068        1.6088831498       -1.5928355039
 C         -4.8385986050        2.4029050473       -0.4562965498
 C         -4.6560218425        1.8402277787        0.7973239015
 C         -4.4554462194        0.4747422749        0.9199632853
 H         -4.3146336428       -0.0004603482        1.8767640470
 H         -4.6660043754        2.4599214061        1.6795428829
 H         -4.9913569524        3.4667127235       -0.5482251199
 H         -4.9724351440        2.0489435127       -2.5663994857
 H         -4.6047674352       -0.4093755779       -2.3354595187
 H         -2.1347416008       -2.0486037604       -1.1874589781
 H         -2.3381490777       -2.1557126988        2.4067661223
 H         -1.0883615174       -0.5726757206        3.8585289887
 H          0.2357624120        1.2454379963        2.8430190116
 H          0.6438056642        2.6278475061        0.9916712890
 C         -0.0243770351        2.4024184293       -1.0266262699
 C         -1.3048440331        3.1762135243       -0.9422795765
 C         -0.0176125844        3.8854936838       -1.2348566995
 H          0.1493045382        4.2637133963       -2.2322934268
 H          0.4179974711        4.4977806003       -0.4587824926
 H         -2.0268021644        3.0670351885       -1.7366746214
 H         -1.7448792557        3.3018178396        0.0353373701
 H          0.1357716330        1.7815942913       -1.8984940071
