  62
        -98.94283991
 C         -2.0873356203       -1.5127906100        0.1247687812
 C         -1.7128221006       -0.3693926905       -0.6252917897
 C         -2.7663533510        0.6433264589       -0.8131822207
 C         -3.9902431910        0.4361555388       -0.2970170808
 C         -5.1356477514        1.4020655183       -0.3813727517
 C         -5.1575406920        2.3446051993        0.8300636875
 C         -3.8072557323        2.9955723701        1.1302495671
 H         -3.9515675727        3.6635751607        1.9821758365
 H         -3.1006084420        2.2235953006        1.4436863579
 C         -3.2085073224        3.7837820693       -0.0428331035
 H         -3.9872760224        4.0099265484       -0.7722413838
 H         -2.8315903929        4.7369824298        0.3335432258
 C         -2.0404735621        3.0881755592       -0.7446761527
 H         -1.3012607820        2.7744552402       -0.0034320723
 H         -1.5620001323        3.8183383089       -1.4027942032
 C         -2.4067545114        1.8706312084       -1.6026932717
 H         -3.2108503614        2.1337338174       -2.2932108921
 H         -1.5255015812        1.5974333382       -2.1904338014
 H         -5.9060120423        3.1188005688        0.6510711367
 H         -5.4651848819        1.7722560799        1.7084152579
 H         -5.0534507815        1.9773212375       -1.3015363322
 H         -6.0656954112        0.8312084379       -0.4031958314
 O         -4.3126908407       -0.6743400207        0.4142879801
 C         -3.3696696003       -1.6570506401        0.6627618311
 O         -3.7883220900       -2.5985054697        1.3659488418
 H          1.3073526203       -2.4792449595       -0.8708476975
 C          1.3400451500       -2.0414443386        0.1143732421
 C          0.2025817698       -2.0388644984        0.9045207620
 C          0.2601104494       -1.4292547274        2.1544490515
 C          1.4308918691       -0.8490819065        2.6048037711
 C          2.5666660692       -0.8552643567        1.8140848713
 C          2.5126305696       -1.4439562978        0.5578037218
 N          3.6501009398       -1.4338369680       -0.2650862980
 S          4.6023474892       -0.0607122276       -0.3040114490
 O          5.2546567794       -0.0955634784       -1.5948341489
 O          5.4837621690       -0.0563927763        0.8386353311
 C          3.4916427586        1.3325858320       -0.2098667804
 C          3.6554374581        2.2665160229        0.7932519888
 C          2.7918295576        3.3482522426        0.8499712978
 C          1.7847927177        3.4767512014       -0.0940157025
 C          1.6371343782        2.5324780605       -1.0978675717
 C          2.4958933787        1.4480472508       -1.1586180406
 H          2.3901843291        0.6978900501       -1.9250170800
 H          0.8493509183        2.6248064095       -1.8272370319
 H          1.1098995073        4.3172208511       -0.0482781033
 H          2.9050812572        4.0847864833        1.6293005172
 H          4.4517306380        2.1273459638        1.5066915491
 H          3.4853939000       -1.7915245088       -1.1944109078
 H          3.4900792490       -0.4143731760        2.1526608611
 H          1.4614851087       -0.3846591857        3.5788010408
 H         -0.6311740307       -1.4112184772        2.7672451313
 C         -1.1044933899       -2.6292907694        0.4392415123
 H         -1.5521625798       -3.1701637088        1.2886616827
 C         -0.9349234393       -3.6481884102       -0.6782847868
 C         -2.1046409190       -4.0558317914       -1.5220292467
 C         -0.9772542392       -3.2791421215       -2.1296183672
 H         -0.3109436989       -3.7935271018       -2.8073745866
 H         -1.1425305396       -2.2438742818       -2.3821701581
 H         -2.2135662085       -5.0981082017       -1.7815410458
 H         -3.0431716192       -3.5490927217       -1.3501143072
 H         -0.2464474790       -4.4399196297       -0.3974487861
 O         -0.5737389706       -0.1886937705       -1.1248939797
