  62
        -98.93967344
 C         -2.5640738157       -0.2480114351        0.0403114459
 C         -2.3217427817       -1.2701437568       -0.9033471057
 C         -1.6880395449       -2.4992698116       -0.3970817777
 C         -1.3830528698       -2.5815795268        0.9100353329
 C         -0.6571077071       -3.6933500062        1.6163096741
 C          0.8544536442       -3.4056892824        1.6510822107
 C          1.6365300407       -3.9488896778        0.4570699090
 H          2.6669000117       -3.6009387807        0.5608160505
 H          1.6473880492       -5.0408631569        0.4954976796
 C          1.1096478233       -3.5073367610       -0.9105484311
 H          0.8624280326       -2.4431873769       -0.8780912844
 H          1.9184727400       -3.6202790621       -1.6360891218
 C         -0.1004491041       -4.3265934054       -1.3840999564
 H         -0.1995860618       -5.2108536753       -0.7544372441
 H          0.0836888892       -4.6864558687       -2.3988070823
 C         -1.4345920336       -3.5694795205       -1.4244565823
 H         -1.5270941778       -3.0537919090       -2.3859747681
 H         -2.2554688792       -4.2940143783       -1.3792337401
 H          0.9919002846       -2.3222978038        1.7041004430
 H          1.2750590350       -3.8398392050        2.5606694768
 H         -1.0344370470       -3.7079549205        2.6409123939
 H         -0.8670333857       -4.6521426098        1.1510013282
 O         -1.6653999364       -1.5854152784        1.7936239796
 C         -2.2174329482       -0.3868302338        1.3841269807
 O         -2.3666203000        0.4520843793        2.2939659607
 H         -0.4516272427        0.8098071507       -0.6532146235
 C         -0.7079171150        1.8131558883       -0.3460045110
 C         -2.0447525679        2.1575525272       -0.1893617103
 C         -2.3497574098        3.4641064856        0.1674609974
 C         -1.3365603419        4.3858971643        0.3768648293
 C         -0.0074082932        4.0254201110        0.2597080038
 C          0.3083134541        2.7164291096       -0.0930781894
 N          1.6481634007        2.2910967896       -0.1464841684
 S          2.0358449577        0.6797914797       -0.3970182476
 O          1.7563608400        0.2760866418       -1.7597247056
 O          1.4329961858       -0.1032353664        0.6505525722
 C          3.7996293038        0.7608813085       -0.1534464576
 C          4.6408787722        0.8049267045       -1.2486295876
 C          6.0086522857        0.8939808995       -1.0413100699
 C          6.5090288600        0.9388246787        0.2510464993
 C          5.6524141529        0.8913853692        1.3411453974
 C          4.2842909905        0.8020625541        1.1400208971
 H          3.5794079404        0.7534704392        1.9540887735
 H          6.0446627384        0.9229358395        2.3448336230
 H          7.5734875719        1.0079222045        0.4103761424
 H          6.6767922000        0.9272651917       -1.8867329113
 H          4.2061991435        0.7569626871       -2.2341083916
 H          2.2933579083        2.9416976443       -0.5679419977
 H          0.7796987669        4.7387227362        0.4462733464
 H         -1.5884958616        5.3996442580        0.6491573819
 H         -3.3795394671        3.7604141546        0.2846694158
 C         -3.0873407087        1.0927433154       -0.4394354499
 H         -3.2136665399        0.9861143487       -1.5283292536
 C         -4.4317475208        1.4134683396        0.1791248826
 C         -5.4481732651        2.2077136095       -0.5842965786
 C         -5.6552168984        0.7402973715       -0.3646278633
 H         -6.4192153746        0.4215782470        0.3282213213
 H         -5.5187860637        0.0716095054       -1.2022468806
 H         -6.0758748321        2.8981368742       -0.0413965150
 H         -5.1833012727        2.5360618808       -1.5781167337
 H         -4.3701101022        1.5510881123        1.2526594399
 O         -2.6106377147       -1.1537103338       -2.1282689217
