  62
        -98.93453578
 C         -2.3302092402        0.1650467531       -0.2908145604
 C         -3.4661954876        0.4367337829       -1.0866970215
 C         -4.7215687266       -0.2200456436       -0.6836700543
 C         -4.7159132364       -1.0343979159        0.3862089657
 C         -5.8890565067       -1.7512994069        0.9955435790
 C         -6.5072221178       -0.9144912275        2.1286090845
 C         -7.5679491792        0.0912731691        1.6827099613
 H         -8.4695908916       -0.4473144213        1.3836269824
 H         -7.8236214986        0.7005162436        2.5526608822
 C         -7.1509685478        1.0192195460        0.5386939372
 H         -6.1309175535        1.3713219754        0.7033044708
 H         -7.8023885479        1.8950240928        0.5635052486
 C         -7.2593684718        0.3587520736       -0.8436999729
 H         -7.8316729157        1.0072845565       -1.5102071305
 H         -7.8260709672       -0.5676091898       -0.7521982829
 C         -5.9206297100        0.0781243825       -1.5422729720
 H         -6.0542636186       -0.7446176192       -2.2526290728
 H         -5.6269511469        0.9528242596       -2.1310995475
 H         -6.9660303315       -1.5904325375        2.8530139874
 H         -5.6945916087       -0.3913356587        2.6392323130
 H         -6.6280100831       -1.9953823115        0.2382698463
 H         -5.4995701328       -2.6784836079        1.4208100022
 O         -3.5936270213       -1.2793664029        1.1183036452
 C         -2.3794930814       -0.6918827016        0.8079901315
 O         -1.4444963991       -1.0077205383        1.5678678288
 O         -3.4344315216        1.1975497986       -2.0923115595
 C         -1.0104417043        0.8241014915       -0.6436939551
 C          0.0489446907       -0.2161457725       -0.9114827530
 C         -0.2418957359       -1.2679575891       -1.7775922640
 C          0.7046283785       -2.2324828200       -2.0612567369
 C          1.9691296520       -2.1608910071       -1.5029406772
 C          2.2704391707       -1.1155911537       -0.6392590437
 C          1.3127655973       -0.1530832273       -0.3480357262
 H          1.5772991254        0.6448193729        0.3252145977
 N          3.5365662957       -1.0220528349       -0.0399428129
 S          4.1965343717        0.5133867208        0.1999033347
 O          3.7100714708        1.0464150995        1.4473563331
 O          3.9824741172        1.3313005215       -0.9725042500
 C          5.9255744809        0.1024810721        0.3551268964
 C          6.7384119191        0.1733247767       -0.7607278712
 C          8.0747134686       -0.1741535198       -0.6402954533
 C          8.5725134941       -0.5870769021        0.5864767064
 C          7.7449454480       -0.6520685834        1.6976905917
 C          6.4079677637       -0.3051753779        1.5845047995
 H          5.7296802250       -0.3313410719        2.4214881277
 H          8.1361331184       -0.9704286181        2.6504885707
 H          9.6127296508       -0.8569083070        0.6780362587
 H          8.7213160506       -0.1207901213       -1.5013108035
 H          6.3098990550        0.5092894096       -1.6913071443
 H          4.2093677396       -1.6643746221       -0.4354268829
 H          2.7112043852       -2.9118452207       -1.7278255106
 H          0.4605998461       -3.0433910831       -2.7311604146
 H         -1.2262713803       -1.3182709508       -2.2234807992
 H         -1.1952276222        1.3677261572       -1.5830420506
 C         -0.6179302553        1.8237206405        0.4236190645
 C          0.2473471232        2.9969809262        0.0768210055
 C         -1.2040703059        3.2020028533        0.3877842759
 H         -1.4705500148        3.6737924040        1.3216383853
 H         -1.8734710100        3.4342324053       -0.4276903794
 H          0.9854516143        3.3212775215        0.7956754141
 H          0.5702633269        3.0933205284       -0.9491483554
 H         -0.4819242462        1.3622153648        1.3961744086
