  62
        -98.93827338
 C         -0.9548901946       -1.7115638648        0.1560004086
 C         -1.5429847553       -0.7760453758        1.0422497931
 C         -2.5117706074        0.1783363216        0.4758573541
 C         -2.7777572635        0.1342593132       -0.8427930252
 C         -3.6398229111        1.0210610309       -1.7170589785
 C         -4.6335301316        1.9994865259       -1.0968531832
 C         -5.8201935123        1.3402813328       -0.3943195472
 H         -6.4024050228        2.1209807797        0.0997805618
 H         -6.4579727323        0.8782784930       -1.1520869101
 C         -5.4620166508        0.2633224220        0.6263392496
 H         -4.9547904570       -0.5628636776        0.1237388603
 H         -6.3951497844       -0.1329048641        1.0358073615
 C         -4.6036625950        0.7349403609        1.7979252691
 H         -4.5591288315       -0.0831937408        2.5216445686
 H         -5.0836485073        1.5860864714        2.2845105024
 C         -3.1561519013        1.1231598249        1.4495434777
 H         -3.0949661274        2.1474968526        1.0885719840
 H         -2.5656387997        1.0619137868        2.3681137772
 H         -5.0286543759        2.6037904108       -1.9180104706
 H         -4.1193507646        2.6804263090       -0.4250005684
 H         -4.1739916787        0.3468400070       -2.3945944780
 H         -2.9345836610        1.5846005631       -2.3394793248
 O         -2.1983674367       -0.7919539776       -1.6581773910
 C         -1.2728267062       -1.7230852457       -1.2025362126
 O         -0.8524960484       -2.4804575706       -2.0951465590
 O         -1.2566990701       -0.7300198509        2.2693279887
 C          0.0941160683       -2.6321135699        0.7539556118
 C          1.4293236582       -1.9294354909        0.7965447656
 C          2.2630075826       -2.0353801673        1.9040120675
 C          3.4788163740       -1.3757094446        1.9359797361
 C          3.8703331647       -0.5716328145        0.8804771186
 C          3.0382130424       -0.4483779971       -0.2256893019
 C          1.8390048048       -1.1434460977       -0.2711754692
 H          1.2120783509       -1.0465847801       -1.1448589771
 N          3.3723026811        0.3991170144       -1.3021942963
 S          2.2713182390        1.6149016636       -1.6571604212
 O          1.0799223862        1.0620083340       -2.2466310593
 O          3.0127637016        2.5544655465       -2.4706644494
 C          1.9105140921        2.3310045314       -0.0652427800
 C          2.7524289088        3.3051090340        0.4359843492
 C          2.5323192299        3.7856904748        1.7165255331
 C          1.4924918460        3.2724835394        2.4779434078
 C          0.6570842366        2.2947081738        1.9607242681
 C          0.8636351389        1.8214198274        0.6749989233
 H          0.2265199351        1.0640694894        0.2449449177
 H         -0.1459584599        1.8760333485        2.5465472023
 H          1.3295195212        3.6354837619        3.4803510916
 H          3.1756568250        4.5507233266        2.1203331838
 H          3.5490692857        3.6739639934       -0.1897920359
 H          4.2992439995        0.7969084274       -1.2318754214
 H          4.8076362505       -0.0374225958        0.9122384015
 H          4.1191685284       -1.4714166850        2.7991429731
 H          1.9449063828       -2.6268397565        2.7496002650
 H         -0.2215841391       -2.7922623421        1.7977708306
 C          0.1733193431       -3.9966598210        0.0873730000
 C          1.2668844608       -4.3787918306       -0.8595665119
 C          1.2172828926       -4.9889708076        0.5071833718
 H          0.9324526724       -6.0259860382        0.5993633730
 H          1.9580465951       -4.6664810884        1.2225395814
 H          1.0001530511       -4.9793901994       -1.7155164278
 H          2.0325904805       -3.6478694432       -1.0700721973
 H         -0.8118997271       -4.3921124075       -0.1371870291
