  62
        -98.94439869
 C         -1.9400241837       -1.0763023929       -0.2245164339
 C         -2.4470340198        0.0769191942       -0.8699410695
 C         -3.9027553942        0.2665251306       -0.7847710014
 C         -4.6522968732       -0.6502609684       -0.1458286378
 C         -6.1345796888       -0.5496989980        0.0660910581
 C         -6.4569374017        0.1502699532        1.3939029226
 C         -5.6998488042        1.4623119269        1.6001056374
 H         -6.0288036410        1.8811944399        2.5535633165
 H         -4.6327381393        1.2482794288        1.6940565554
 C         -5.9101177207        2.4983165253        0.4870750056
 H         -6.0856314106        3.4739734035        0.9451795693
 H         -6.8007770758        2.2468385836       -0.0899333678
 C         -4.7210749845        2.6598637455       -0.4620872291
 H         -3.8074838368        2.8200683838        0.1164251233
 H         -4.8869201399        3.5564124298       -1.0654713678
 C         -4.4776901391        1.4954748829       -1.4306188102
 H         -5.4018869771        1.2578627237       -1.9614364869
 H         -3.7344137074        1.8232791450       -2.1634992030
 H         -7.5314317180        0.3379427491        1.4332943936
 H         -6.1996112307       -0.5256922136        2.2126268908
 H         -6.5791333234       -0.0027174773       -0.7629237075
 H         -6.5487132838       -1.5590916880        0.0876506666
 O         -4.1307988443       -1.7618936860        0.4333406948
 C         -2.7655764105       -1.9955357325        0.4224329129
 O         -2.4150608980       -3.0360932957        1.0148609576
 O         -1.7252667870        0.9071137364       -1.4816961975
 C         -0.4469555425       -1.3529014537       -0.2329896177
 C          0.2969188391       -0.1716129044        0.3402874681
 C         -0.1119065620        0.3428182098        1.5689689935
 C          0.5202268866        1.4375819823        2.1236745044
 C          1.5871402638        2.0342764138        1.4739528532
 C          2.0118185092        1.5225313883        0.2548985392
 C          1.3711879365        0.4224075668       -0.3019081150
 H          1.7134432775        0.0613301792       -1.2567018793
 N          3.0877854807        2.1113260935       -0.4298396146
 S          4.2932209274        1.1477137150       -1.0726220574
 O          5.4001879803        2.0515050917       -1.2949017538
 O          3.8091535862        0.4376231396       -2.2278999274
 C          4.6866518430        0.0104456381        0.2430932225
 C          4.1408303935       -1.2567586665        0.2413814093
 C          4.3947450834       -2.0953307617        1.3154627389
 C          5.1844160641       -1.6547281636        2.3659852934
 C          5.7311694481       -0.3803270267        2.3494824184
 C          5.4772115651        0.4639851488        1.2812939877
 H          5.8906986483        1.4579441372        1.2253923569
 H          6.3496941004       -0.0433097100        3.1656222920
 H          5.3765293196       -2.3102177317        3.2007327128
 H          3.9722181290       -3.0874708749        1.3291074368
 H          3.5359046787       -1.5651045986       -0.5951190226
 H          3.4827597215        2.9173235048        0.0323447175
 H          2.0778932131        2.8955040122        1.9012251052
 H          0.1830035485        1.8303136465        3.0711338865
 H         -0.9459375898       -0.1236554359        2.0762055760
 H         -0.2945942450       -2.2135298475        0.4348331934
 C          0.0021799505       -1.7353936120       -1.6275812898
 C          1.1405799908       -2.6900655533       -1.8194042790
 C         -0.2615492093       -3.1250730099       -2.1209731022
 H         -0.5534502658       -3.2591581882       -3.1517449064
 H         -0.7428464806       -3.8097432011       -1.4375319213
 H          1.8209369921       -2.5241269612       -2.6419171001
 H          1.6050688816       -3.0944658750       -0.9324469061
 H         -0.1129991844       -0.9272112568       -2.3413060692
