  62
        -98.93586649
 C         -2.3495415204       -0.7526006005        0.2248230504
 C         -2.4104992104        0.6613598894        0.3285428909
 C         -3.5749851405        1.3150252097       -0.2819282487
 C         -4.4970893606        0.5594468899       -0.9053054888
 C         -5.7593518107        1.0817737901       -1.5267484485
 C         -6.9188651505        1.0701704998       -0.5209286283
 C         -6.5724932503        1.7024363293        0.8270563319
 H         -7.4724875702        1.6664240491        1.4446393820
 H         -5.8165867502        1.0902434791        1.3243746315
 C         -6.0707579303        3.1504942794        0.7386535023
 H         -6.5689635102        3.7416728591        1.5098536325
 H         -6.3440986904        3.5795358197       -0.2259375275
 C         -4.5652699503        3.3148329693        0.9565767221
 H         -4.2692441801        2.8054250789        1.8772892119
 H         -4.3545296502        4.3792576392        1.0906736824
 C         -3.6665203204        2.8116400296       -0.1803664982
 H         -3.9959359006        3.2424407399       -1.1282883780
 H         -2.6488697504        3.1604900995        0.0198614918
 H         -7.7659944306        1.5961652600       -0.9645788880
 H         -7.2148388605        0.0333051397       -0.3463808786
 H         -5.5870272107        2.0937582102       -1.8878870782
 H         -6.0165489308        0.4417253304       -2.3722539287
 O         -4.4026099806       -0.7892953701       -0.9962091293
 C         -3.3368658306       -1.4854164203       -0.4360303997
 O         -3.4067505006       -2.7158893202       -0.6033353301
 H          1.4155672697       -0.5970871909        1.0608179899
 C          1.2287572395       -1.1286318706        0.1396501997
 C         -0.0396799005       -1.6191878905       -0.1342398302
 C         -0.2588302007       -2.2776643801       -1.3411553404
 C          0.7734072992       -2.4392902798       -2.2465181306
 C          2.0354523092       -1.9417260299       -1.9733260607
 C          2.2651494394       -1.2818331303       -0.7718242405
 N          3.5480833395       -0.7992706104       -0.4582896705
 S          3.6791327096        0.6842536093        0.3418847300
 O          3.4186298598        0.4773810788        1.7439129099
 O          2.8769832695        1.6820311595       -0.3291579496
 C          5.4140713096        1.0181941194        0.0987159198
 C          6.3328511697        0.3571832291        0.8921570395
 C          7.6835299997        0.5906458691        0.6888041793
 C          8.0910986295        1.4757285994       -0.2984839104
 C          7.1574902694        2.1335960497       -1.0849214401
 C          5.8048191294        1.9034288297       -0.8878724799
 H          5.0425534894        2.3974645699       -1.4688868096
 H          7.4767879693        2.8239130000       -1.8489999799
 H          9.1429592995        1.6562665595       -0.4540967405
 H          8.4123857397        0.0834973889        1.3001107191
 H          5.9690453898       -0.3136170012        1.6527453793
 H          4.1731381393       -0.8314654602       -1.2531482106
 H          2.8379069891       -2.0638465697       -2.6850967208
 H          0.5912714990       -2.9525687694       -3.1787892908
 H         -1.2446580407       -2.6604747400       -1.5573950004
 C         -1.1512957504       -1.4295895708        0.8666398200
 H         -0.7912359302       -0.7049928510        1.6154437102
 C         -1.5087929803       -2.7088243610        1.6122149796
 C         -1.0462652304       -4.0710766609        1.2001298491
 C         -0.4569322002       -3.4193241013        2.4123407192
 H         -0.7167251900       -3.8001378916        3.3884158591
 H          0.5534828198       -3.0443074813        2.3382271992
 H         -0.4312695005       -4.1586192606        0.3189416690
 H         -1.7360175804       -4.8904434209        1.3324577189
 H         -2.4992797302       -2.6544764512        2.0527775598
 O         -1.5304014403        1.3467778792        0.9184314810
