  62
        -98.94174368
 C         -2.1904757709       -1.2685178383        0.3048196492
 C         -1.7937947800       -0.3270112486       -0.6772188707
 C         -2.6104638392        0.8970555319       -0.7550333610
 C         -3.6434781494        1.0629621026        0.0898153687
 C         -4.5371401086        2.2681549732        0.1322696583
 C         -4.0120346283        3.3202260529        1.1186544985
 C         -2.5301301480        3.6485564720        0.9368928789
 H         -2.2763452078        4.4251200718        1.6619352790
 H         -1.9363205887        2.7673504916        1.1923292292
 C         -2.1541211973        4.1222715317       -0.4741134810
 H         -3.0491340469        4.4469440322       -1.0058752513
 H         -1.4960045267        4.9894468812       -0.3871315108
 C         -1.4105911076        3.0828617412       -1.3150204307
 H         -0.5665171381        2.6927545606       -0.7410911404
 H         -1.0025013670        3.5901240509       -2.1932479906
 C         -2.2490624382        1.8995721817       -1.8154943409
 H         -3.1466073478        2.2719667022       -2.3135305912
 H         -1.6516065883        1.3522738613       -2.5505780707
 H         -4.6044662777        4.2294635033        1.0022828782
 H         -4.1591200689        2.9474906030        2.1351696984
 H         -4.6097997080        2.6954484232       -0.8660026117
 H         -5.5297838289        1.9471083338        0.4529157280
 O         -3.9668991603        0.1562208229        1.0473546986
 C         -3.2448061311       -1.0185915976        1.1868406289
 O         -3.6281264918       -1.7452536973        2.1255253488
 H         -0.0728188311       -0.7739312796        1.8373631799
 C          0.5849867987       -1.3908336900        1.2362409702
 C          0.0349318483       -2.3899104197        0.4417901400
 C          0.8917010781       -3.1639164503       -0.3299072497
 C          2.2590595882       -2.9500242411       -0.2919731292
 C          2.8014144586       -1.9551736414        0.4990127509
 C          1.9508914688       -1.1577894509        1.2552945806
 N          2.4860057192       -0.1159267512        2.0296326907
 S          3.7370469300        0.7920489880        1.3890679811
 O          4.9922472495        0.1331485172        1.6571539016
 O          3.5845158806        2.1048393281        1.9789243610
 C          3.4692673606        0.8645761081       -0.3739283190
 C          4.5062975307        0.5507452774       -1.2292814586
 C          4.2879578212        0.6081644675       -2.5961887087
 C          3.0409648516        0.9705552783       -3.0813357991
 C          2.0105794315        1.2865113589       -2.2096716595
 C          2.2262252910        1.2371877589       -0.8429968794
 H          1.4368059109        1.4689500794       -0.1454646197
 H          1.0337195218        1.5489057896       -2.5810895498
 H          2.8671446020        1.0047978283       -4.1452288092
 H          5.0872989113        0.3635672770       -3.2770969984
 H          5.4555689804        0.2617453268       -0.8078053383
 H          1.7944795694        0.4708793093        2.4716557805
 H          3.8644964787       -1.7819056821        0.5443856913
 H          2.9120851480       -3.5647586116       -0.8921434190
 H          0.4914772878       -3.9290078900       -0.9736438598
 C         -1.4615935418       -2.5885099787        0.4870047695
 H         -1.7176000224       -2.9130003085        1.5100042895
 C         -1.9475032722       -3.6888122985       -0.4474324506
 C         -3.2998436820       -3.6276918176       -1.0912105210
 C         -2.0657272516       -3.4762824285       -1.9259510306
 H         -1.7922844919       -4.2866393787       -2.5857050605
 H         -1.8182951809       -2.4982249286       -2.3064139406
 H         -3.8683299225       -4.5425064573       -1.1689875912
 H         -3.9079738215       -2.7535414072       -0.9079186813
 H         -1.6244176130       -4.6717535987       -0.1190160504
 O         -0.8189245599       -0.4853433392       -1.4537307403
