  62
        -98.94759762
 C          2.5280306096       -0.2922951407       -0.0080415881
 C          2.2161844710       -1.3015824844        0.9325496210
 C          1.5772037016       -2.5092999152        0.3960725826
 C          1.3460260888       -2.5975874883       -0.9264235188
 C          0.7002460535       -3.7693288527       -1.6082049598
 C         -0.8162636840       -3.5861980884       -1.7454685063
 C         -1.5192652750       -3.1956952838       -0.4451236260
 H         -1.2290748070       -2.1776288269       -0.1742922617
 H         -2.5918351967       -3.1694753184       -0.6539843029
 C         -1.2541869229       -4.1334166796        0.7403816697
 H         -0.8935673154       -5.0979373333        0.3797399171
 H         -2.1989732186       -4.3102282489        1.2585079142
 C         -0.2772794511       -3.5770813440        1.7785419537
 H         -0.5621829794       -2.5504221362        2.0266409332
 H         -0.3699832348       -4.1746711924        2.6897555629
 C          1.2029233003       -3.5870957481        1.3737234398
 H          1.7969145757       -3.3940093720        2.2720360439
 H          1.4736825097       -4.5725409852        0.9877771675
 H         -1.2406500885       -4.5174435712       -2.1267221787
 H         -1.0043720828       -2.7959718562       -2.4760176990
 H          1.1348207577       -3.8624653596       -2.6054045185
 H          0.9175572663       -4.6732125607       -1.0417852668
 O          1.6731501694       -1.6140678553       -1.8029697562
 C          2.2217792491       -0.4200124825       -1.3629033218
 O          2.4130241579        0.4202753079       -2.2636818341
 H          0.5027873040        0.8746390519        0.9966010249
 C          0.7494431206        1.8253303632        0.5466348179
 C          2.0716055868        2.1097401198        0.2315111223
 C          2.3676546680        3.3490306337       -0.3199909997
 C          1.3535936518        4.2554508351       -0.5817779648
 C          0.0317969815        3.9409206400       -0.3243761222
 C         -0.2710812079        2.7098257494        0.2466602198
 N         -1.5968528242        2.3297728699        0.5293933359
 S         -1.9628559119        0.6964909917        0.2617001539
 O         -1.6278176910       -0.0499864595        1.4488517036
 O         -1.3681967607        0.2530659157       -0.9778594120
 C         -3.7369723747        0.7805046475        0.1028632979
 C         -4.3096390760        0.7503027321       -1.1542008452
 C         -5.6880716862        0.8471676919       -1.2654770987
 C         -6.4651387957        0.9754634877       -0.1241220530
 C         -5.8757597634        1.0030597054        1.1313194856
 C         -4.4985926946        0.9045145039        1.2496639312
 H         -3.9957055960        0.9104873046        2.2025508055
 H         -6.4831565643        1.0996670821        2.0165889997
 H         -7.5372283898        1.0514193625       -0.2135944487
 H         -6.1484724075        0.8218512033       -2.2399775585
 H         -3.6639336041        0.6418845692       -2.0111359815
 H         -2.2764647592        2.9360873491        0.0893444244
 H         -0.7581562624        4.6364773046       -0.5639882354
 H          1.5953629540        5.2132545222       -1.0172154664
 H          3.3880742265        3.5991301872       -0.5603663454
 C          3.0922432789        1.0276400200        0.4900503177
 H          3.2004279274        0.9072874156        1.5788876475
 C          4.4511202953        1.3137378605       -0.1105354096
 C          5.4462052512        2.1466154641        0.6397392843
 C          5.6613284162        0.6709467243        0.4956866529
 H          6.4431453226        0.3227538074       -0.1622695590
 H          5.5065035088        0.0425630205        1.3607060997
 H          5.1530804010        2.5224873926        1.6083059663
 H          6.0860490870        2.8128233517        0.0811291376
 H          4.4171054364        1.3994123694       -1.1906236906
 O          2.4688394851       -1.1980945385        2.1652689088
