  62
        -98.94871006
 C         -1.4692996363       -1.3955444427       -0.3523771381
 C         -0.3551014012       -1.6770301819       -1.1770180532
 C          0.6309086826       -2.6112969912       -0.6245683249
 C          0.4633869410       -3.0986059868        0.6181737067
 C          1.3605557332       -4.0899157971        1.3092020390
 C          2.5948729460       -3.4627167531        1.9702311888
 C          3.6911750215       -3.0154518960        1.0031892059
 H          4.5854402251       -2.8254867011        1.6004086631
 H          3.9244517772       -3.8290364981        0.3152051043
 C          3.3534582937       -1.7450684131        0.2105412572
 H          2.5395305465       -1.2087019025        0.7066413176
 H          4.2224214842       -1.0814679508        0.2184250076
 C          2.9819112188       -1.9830965905       -1.2536304975
 H          3.8534523917       -2.3601441089       -1.7941189286
 H          2.6969454049       -1.0237175574       -1.6928289799
 C          1.8210133431       -2.9616341548       -1.4665526279
 H          1.5129588173       -2.9000998885       -2.5134335185
 H          2.1449578100       -3.9809735519       -1.2561466088
 H          2.2734641684       -2.6085002325        2.5717063024
 H          3.0173682200       -4.2088855594        2.6476245820
 H          0.7566534999       -4.5632477526        2.0865279585
 H          1.6759717243       -4.8559202363        0.5995502978
 O         -0.5932032911       -2.7586262307        1.4026389211
 C         -1.5738598861       -1.8906042969        0.9471636053
 O         -2.4762722738       -1.6577864735        1.7751901829
 O         -0.2001948352       -1.1821248176       -2.3266380454
 C         -2.5471329329       -0.4539207089       -0.8612341731
 C         -2.5988047177        0.7607232132        0.0309449266
 C         -3.7632909718        1.2667369139        0.5915711467
 C         -3.7081642649        2.3518431812        1.4501300679
 C         -2.5014402792        2.9453498056        1.7700120742
 C         -1.3318110913        2.4575710429        1.1956297065
 C         -1.3936792746        1.3917413406        0.3148521179
 H         -0.4845191173        1.0062689597       -0.1234162779
 N         -0.0940545319        3.0563934744        1.4659706440
 S          1.3482252525        2.2435242692        1.2723136030
 O          1.2512705500        0.8447208049        1.6241734469
 O          2.3008343829        3.0138346262        2.0459781194
 C          1.7530065071        2.4249630136       -0.4542715379
 C          2.8807408266        1.7649344650       -0.9004577169
 C          3.2595663622        1.8927228527       -2.2269062527
 C          2.5069479249        2.6802760520       -3.0838642683
 C          1.3818976880        3.3428860374       -2.6199340148
 C          0.9989948235        3.2202078143       -1.2929311381
 H          0.1247375254        3.7219299103       -0.9128771749
 H          0.7968908926        3.9548121400       -3.2876675774
 H          2.7986009861        2.7760426599       -4.1177770207
 H          4.1356502565        1.3761749684       -2.5854310051
 H          3.4348229726        1.1608039403       -0.2002434709
 H         -0.0753977160        3.7213571041        2.2235863728
 H         -2.4583660194        3.7745533654        2.4593525450
 H         -4.6182693093        2.7308872109        1.8897532507
 H         -4.7107740638        0.8026169374        0.3730661103
 H         -2.2117468068       -0.1377161808       -1.8601684712
 C         -3.8721458304       -1.1736537558       -0.9923163673
 C         -4.8873260534       -0.7082861265       -1.9920814677
 C         -4.1382113190       -1.9850070215       -2.2236337349
 H         -4.6651649719       -2.9215058668       -2.1192393566
 H         -3.3698591840       -1.9993963390       -2.9827319688
 H         -5.9331023175       -0.7696969203       -1.7314822824
 H         -4.6327782496        0.1452494619       -2.6016109955
 H         -4.2249399571       -1.5694862716       -0.0465240377
