  62
        -98.93820842
 C          1.7716743706        0.2234702482       -0.8835801079
 C          2.9314781659       -0.5802763125       -1.0180267180
 C          4.2091449507        0.0840841308       -0.7046014524
 C          4.2157499454        1.3728944088       -0.3226216695
 C          5.4373626382        2.1438052196        0.0844756909
 C          5.6797621493        2.0418772622        1.5969271183
 C          5.6283277161        0.6121806052        2.1357646711
 H          4.6113022011        0.2276472102        2.0292458853
 H          5.8427196620        0.6598924305        3.2056544801
 C          6.6095182642       -0.3563028408        1.4606145900
 H          7.1013330510       -0.9515851957        2.2329241789
 H          7.3867720292        0.2056202194        0.9414077499
 C          5.9600063633       -1.3404790330        0.4860469080
 H          5.1209048556       -1.8409395448        0.9759381018
 H          6.6972313037       -2.1083112763        0.2363369041
 C          5.4593049508       -0.7404214854       -0.8338345614
 H          5.2031443825       -1.5704312330       -1.4989648055
 H          6.2576432540       -0.1598088483       -1.3004093932
 H          4.9143744714        2.6283874100        2.1103628116
 H          6.6529972272        2.4823748319        1.8211039593
 H          5.2868083618        3.1916129145       -0.1806941398
 H          6.2996080415        1.7620687893       -0.4587793585
 O          3.0843056080        2.1155961421       -0.2160130053
 C          1.8451403335        1.5607441449       -0.4826429054
 O          0.8908189562        2.3515743373       -0.3393211774
 O          2.9268734962       -1.7860159186       -1.3731809307
 C          0.3661787936       -0.2862964636       -1.1535433330
 C         -0.2442857390       -0.9226779776        0.0684480916
 C          0.4661421307       -1.8154603640        0.8638824746
 C         -0.1324221286       -2.3990159438        1.9656862122
 C         -1.4528367976       -2.1270983805        2.2785342237
 C         -2.1725897252       -1.2395422726        1.4880070919
 C         -1.5574483821       -0.6291125923        0.4042040214
 H         -2.1131952913        0.0804290809       -0.1889308264
 N         -3.5133400734       -0.9413351654        1.7667935675
 S         -4.6007751745       -0.8032477970        0.4984055610
 O         -5.8879906659       -1.0986252623        1.0894430024
 O         -4.2076166793       -1.6242116239       -0.6219624994
 C         -4.5494440197        0.9194265552        0.0557621300
 C         -4.2775966696        1.2860108857       -1.2472243790
 C         -4.2530932632        2.6327740574       -1.5734498996
 C         -4.5013826734        3.5837649448       -0.5959789105
 C         -4.7773851287        3.1988965785        0.7074724787
 C         -4.8031343187        1.8542855273        1.0397644239
 H         -5.0173505333        1.5160748038        2.0398349485
 H         -4.9695549392        3.9426411089        1.4639484701
 H         -4.4784745316        4.6311089187       -0.8526980638
 H         -4.0369420971        2.9334589168       -2.5861666366
 H         -4.0848405856        0.5148516023       -1.9770106106
 H         -3.9077533057       -1.4437282710        2.5486346690
 H         -1.9234011953       -2.5980119951        3.1283656340
 H          0.4303188855       -3.0871181472        2.5786839621
 H          1.4854004560       -2.0569521160        0.6036085033
 H         -0.2267660549        0.6145241824       -1.3801306961
 C          0.2779930205       -1.1936021035       -2.3739317510
 C          0.0951415519       -2.6758927725       -2.2950636565
 C         -1.0321269592       -1.8107865662       -2.7681490796
 H         -1.2946935296       -1.8328326010       -3.8154629825
 H         -1.8778165106       -1.6855564145       -2.1064935778
 H          0.6262704003       -3.2848077718       -3.0106027036
 H          0.0142044811       -3.1281996701       -1.3192182897
 H          0.9042494489       -0.8333483585       -3.1843966847
