  62
        -98.93432141
 C         -2.2598186739       -0.4351615633        0.2351048307
 C         -3.5412286470       -0.8480054460        0.6688070335
 C         -4.6263115651        0.1377989266        0.5356771747
 C         -4.3515662958        1.3549149790        0.0357946670
 C         -5.2859670602        2.5243420524       -0.1511851920
 C         -6.6833365564        2.2321591655       -0.7152260071
 C         -6.7499007280        1.0683551134       -1.7148922288
 H         -7.2672315149        1.4035619838       -2.6157735126
 H         -5.7423276009        0.7705509423       -2.0104782558
 C         -7.5013365846       -0.1469644268       -1.1661410677
 H         -7.8310982365       -0.7640317621       -2.0053745098
 H         -8.3958634295        0.2007534209       -0.6448656598
 C         -6.6959955888       -1.0484606030       -0.2312560885
 H         -7.3740897366       -1.8018296564        0.1766562378
 H         -5.9297118386       -1.5818146388       -0.8003027503
 C         -5.9948643875       -0.3341008694        0.9357047304
 H         -6.6036869682        0.4784804435        1.3241596386
 H         -5.8396018818       -1.0664080893        1.7325927118
 H         -7.0247543324        3.1483804421       -1.1999075394
 H         -7.3731214138        2.0354237469        0.1042180778
 H         -5.3877652969        3.0346970254        0.8109905084
 H         -4.7552293620        3.2052890297       -0.8209183464
 O         -3.0963191411        1.7147694116       -0.3595856181
 C         -2.0253763061        0.8387160775       -0.2783602394
 O         -0.9452741188        1.3092950608       -0.6858179324
 H          1.5815539494       -1.0753436223       -0.2712099511
 C          1.3135631420       -0.7205019040        0.7087047755
 C          0.0074480605       -0.8155086097        1.1613405091
 C         -0.2940409641       -0.3471404636        2.4382188079
 C          0.6832342816        0.2223453150        3.2297406050
 C          1.9805464529        0.3416221769        2.7625403893
 C          2.2961370602       -0.1347497177        1.4961739609
 N          3.6230170799       -0.0686290640        1.0272990635
 S          3.9443090619        0.4021142100       -0.5628051578
 O          3.4744377742        1.7506449331       -0.7948270629
 O          3.4730031528       -0.6134778635       -1.4681643407
 C          5.7278946479        0.3788462228       -0.5184171168
 C          6.4248785433        1.5619288284       -0.3639687073
 C          7.8093481171        1.5224612171       -0.3061149708
 C          8.4695229679        0.3067763423       -0.4006868509
 C          7.7563158280       -0.8726586805       -0.5565975558
 C          6.3723145550       -0.8397578279       -0.6158685903
 H          5.7767087152       -1.7283051103       -0.7443683385
 H          8.2732309056       -1.8156677141       -0.6324025538
 H          9.5467437567        0.2785212088       -0.3554081122
 H          8.3662034930        2.4380989558       -0.1883086168
 H          5.8695315731        2.4842957478       -0.3043311855
 H          4.2109003641        0.4703042998        1.6509767632
 H          2.7427250344        0.7986343348        3.3758098648
 H          0.4334031789        0.5858501926        4.2153593027
 H         -1.3116779330       -0.4285316607        2.7961337222
 C         -1.1012511404       -1.4108522152        0.3301752321
 H         -1.4997558621       -2.2872500889        0.8632789616
 C         -0.6620811810       -1.8424534408       -1.0527074441
 C         -0.0128350676       -3.1777603146       -1.2548581748
 C         -1.4090278136       -2.9414404268       -1.7448041937
 H         -1.5783241893       -2.8594029273       -2.8080520763
 H         -2.2250076424       -3.4001168718       -1.2054412454
 H          0.7836855388       -3.2543904534       -1.9796642564
 H          0.1195338716       -3.8035801096       -0.3853309628
 H         -0.3182215218       -1.0116539849       -1.6607417957
 O         -3.7673145276       -1.9861838376        1.1598491005
