  62
        -98.94016488
 C         -2.2420731299       -0.9203499398        0.4870486284
 C         -2.3298255632        0.0788811691       -0.5140082344
 C         -3.2653133754        1.1781563037       -0.2329522874
 C         -3.9111769846        1.2297658799        0.9450353572
 C         -4.8825057516        2.2932610222        1.3798493125
 C         -6.3164849484        2.0669565919        0.8812584247
 C         -6.5336175293        2.3188658927       -0.6114322520
 H         -7.6123751285        2.3366557465       -0.7786080781
 H         -6.1476851966        3.3049201977       -0.8718490307
 C         -5.9096030603        1.2601043071       -1.5314198826
 H         -5.6833102435        0.3619072563       -0.9520562890
 H         -6.6328064488        0.9712893919       -2.2973266792
 C         -4.6419427279        1.7157819617       -2.2543027375
 H         -4.8839223266        2.5323666228       -2.9379657336
 H         -4.2675137395        0.8789452057       -2.8494018597
 C         -3.5140149462        2.1775186626       -1.3220136282
 H         -2.5959389206        2.2635010351       -1.9084337504
 H         -3.7518883727        3.1526742127       -0.8976830224
 H         -6.6139133990        1.0444159780        1.1256664990
 H         -6.9662784512        2.7438114952        1.4408446013
 H         -4.8910644643        2.2788156719        2.4719681881
 H         -4.5301639699        3.2703413390        1.0480569721
 O         -3.7280330576        0.2972468299        1.9189042315
 C         -2.9083033153       -0.8001358593        1.7088035718
 O         -2.8419659971       -1.5801274997        2.6811321426
 H          0.2635476419       -0.3715520788        1.4328695104
 C          0.7151135638       -0.7883467790        0.5393306984
 C          0.0045293491       -1.7296851170       -0.1967379751
 C          0.5954706098       -2.2599439422       -1.3352220672
 C          1.8573190284       -1.8462849555       -1.7262104894
 C          2.5542195104       -0.9007487001       -0.9977167284
 C          1.9738763725       -0.3648592417        0.1447724702
 N          2.6715626678        0.6089930021        0.8848718561
 S          4.2158125557        0.2170602141        1.4183977279
 O          4.3551711058       -1.2057098672        1.6293099534
 O          4.4449959781        1.0624992256        2.5702037675
 C          5.2786279973        0.7450133581        0.0915684413
 C          6.1347371162       -0.1588025409       -0.5064193142
 C          6.9600222993        0.2777210601       -1.5311924265
 C          6.9152452374        1.6028581896       -1.9364728955
 C          6.0512233155        2.4984359147       -1.3237408038
 C          5.2244345760        2.0689488701       -0.2980564008
 H          4.5416664082        2.7323102076        0.2062918152
 H          6.0189505719        3.5280796435       -1.6417954842
 H          7.5574001996        1.9402011894       -2.7346822752
 H          7.6322882546       -0.4167693176       -2.0087837371
 H          6.1303793974       -1.1803574336       -0.1613072462
 H          2.1309552546        1.0023099953        1.6417507349
 H          3.5330897855       -0.5707636065       -1.3050760781
 H          2.3017127185       -2.2623717463       -2.6174809859
 H          0.0616376469       -2.9830398771       -1.9293242625
 C         -1.3544736291       -2.1406479091        0.3168395537
 H         -1.2138486871       -2.5332000040        1.3384100255
 C         -1.9934156115       -3.2616186789       -0.4904972460
 C         -3.4836435813       -3.4027184585       -0.5719725038
 C         -2.7008700611       -3.0114645647       -1.7872099889
 H         -2.5909526455       -3.7380317610       -2.5789900843
 H         -2.7590330993       -1.9922808410       -2.1338182481
 H         -4.0853599212       -2.6496488383       -0.0834236765
 H         -3.9073569323       -4.3947720619       -0.5256877301
 H         -1.4309529704       -4.1869443133       -0.4114697470
 O         -1.6719344657        0.0681225419       -1.5847256008
