  62
        -98.93966775
 C         -1.3631690775       -0.2891132215        0.5340083973
 C         -2.2469621375       -0.8997872962       -0.3875516233
 C         -3.2608905967       -0.0144796913       -0.9766022547
 C         -3.2687186890        1.2950138227       -0.6695408035
 C         -4.2249329097        2.3251348794       -1.2070612333
 C         -5.5610500329        2.3896588847       -0.4543102655
 C         -6.5085121521        1.2162099502       -0.7070443291
 H         -7.4809733523        1.4957623042       -0.2967206244
 H         -6.6366331497        1.0787827502       -1.7812484580
 C         -6.0644790982       -0.1061291724       -0.0661797631
 H         -5.3132645367        0.0948948440        0.7009289761
 H         -6.9162683381       -0.5722225185        0.4343160860
 C         -5.5022342977       -1.1306238628       -1.0517563834
 H         -6.2864745553       -1.4400852771       -1.7463018819
 H         -5.1860245389       -2.0115789599       -0.4874178325
 C         -4.2996213605       -0.6316449608       -1.8635916247
 H         -4.6266543459        0.0796072924       -2.6219112497
 H         -3.8418037611       -1.4895523236       -2.3624595649
 H         -6.0651721465        3.3080575507       -0.7640109129
 H         -5.3559162943        2.4679259862        0.6157706186
 H         -3.7276388400        3.2924356181       -1.1085113942
 H         -4.4107484121        2.1367604986       -2.2649021074
 O         -2.3635666249        1.8535213825        0.1772701011
 C         -1.4037418360        1.0785589372        0.8102579152
 O         -0.6547078173        1.7134763957        1.5771673089
 O         -2.2011610007       -2.1166104818       -0.7048139900
 C         -0.2906883966       -1.1092320397        1.2311486969
 C          0.6811524835       -1.6206028815        0.1967232738
 C          0.8705840863       -2.9638507850       -0.0962104902
 C          1.7575958142       -3.3452011114       -1.0888486633
 C          2.4968744043       -2.4018971112       -1.7787475547
 C          2.3304359044       -1.0561147965       -1.4778663799
 C          1.4146540794       -0.6751092650       -0.5114805896
 H          1.2546703773        0.3737096484       -0.3069426447
 N          3.1015782243       -0.0451034800       -2.1088564451
 S          4.4057662738        0.4612461381       -1.1661075110
 O          5.1201964416        1.4225831003       -1.9759404564
 O          5.1815560804       -0.6825528433       -0.7312546440
 C          3.6655426833        1.2523281274        0.2398896612
 C          3.5651274247        0.5529991805        1.4262068940
 C          2.9514792089        1.1606355933        2.5091647105
 C          2.4526426062        2.4482533595        2.3880419134
 C          2.5696118769        3.1389149054        1.1919011464
 C          3.1790753011        2.5369915929        0.1031380923
 H          3.2864420821        3.0362299916       -0.8462390064
 H          2.1749105749        4.1382760736        1.1040569793
 H          1.9600552346        2.9133530310        3.2267044517
 H          2.8555702455        0.6266105526        3.4412379796
 H          3.9620506516       -0.4484737518        1.4746785457
 H          3.4618301561       -0.3310074965       -3.0105519689
 H          3.2032280571       -2.6996238830       -2.5396649145
 H          1.8819082280       -4.3923038112       -1.3205096806
 H          0.3114056625       -3.7137309066        0.4381189250
 H          0.2522454084       -0.4059658517        1.8785164864
 C         -0.9061942431       -2.1914599330        2.0913223732
 C         -0.1118317685       -2.7868630975        3.2136141979
 C         -1.2612287178       -1.8726985582        3.5112567342
 H         -2.1645101649       -2.2961446589        3.9242386046
 H         -1.0457137978       -0.8752095830        3.8655794091
 H         -0.2258949851       -3.8390077419        3.4259903580
 H          0.8884958128       -2.4124535955        3.3690737191
 H         -1.5809624943       -2.8369061620        1.5419944120
