  62
        -98.94044183
 C         -0.1705233937       -2.0672264375       -0.1307407257
 C         -1.1938369273       -1.8710641766        0.8247920777
 C         -2.3805010613       -1.1142406332        0.3832978559
 C         -2.4444292553       -0.6923255218       -0.8921612405
 C         -3.5212805596        0.1281206076       -1.5527272500
 C         -3.9359005519        1.3953668023       -0.7870421807
 C         -5.3608377457        1.3241668933       -0.2377423936
 H         -5.7268730746        2.3410330743       -0.0799635664
 H         -6.0018150758        0.8580977000       -0.9889081273
 C         -5.5015122570        0.5733248247        1.0850774781
 H         -5.0577985972        1.1703224012        1.8853478077
 H         -6.5686765846        0.4819478713        1.3012941250
 C         -4.8738818182       -0.8226125755        1.1255560989
 H         -5.0426208192       -1.3501057088        0.1881002932
 H         -5.3853758888       -1.3901204180        1.9062159816
 C         -3.3783024079       -0.8229890772        1.4707195711
 H         -3.0974160002        0.1299768320        1.9342886452
 H         -3.1817785059       -1.5853064249        2.2322256708
 H         -3.2289088742        1.5870040424        0.0213014170
 H         -3.8756225380        2.2419083489       -1.4728262486
 H         -3.1216571552        0.3982752349       -2.5320825938
 H         -4.3942925256       -0.5025834074       -1.7305568103
 O         -1.4687696419       -0.9762738778       -1.8015907880
 C         -0.2894703209       -1.6109309129       -1.4416773082
 O          0.5418680503       -1.7030533150       -2.3629305501
 O         -1.1140403974       -2.2995001106        2.0088888956
 C          1.1371395944       -2.6965503627        0.3160085234
 C          2.2089670996       -1.6325981972        0.2810404370
 C          3.4037655558       -1.7601433879       -0.4139814137
 C          4.3234280056       -0.7249651525       -0.4172576856
 C          4.0697390605        0.4527673434        0.2606583404
 C          2.8801622483        0.5876186769        0.9693432053
 C          1.9686717744       -0.4551670470        0.9815981855
 H          1.0514632744       -0.3445706062        1.5423156244
 N          2.6018652189        1.7644963518        1.6893113295
 S          1.1274059139        2.5327686478        1.5116163036
 O          1.3171238370        3.8194360371        2.1455416170
 O          0.0634819227        1.7150762478        2.0343556675
 C          0.9402989388        2.7484024695       -0.2460194124
 C          1.5058147424        3.8521449306       -0.8543952890
 C          1.4143682530        3.9754779798       -2.2311655668
 C          0.7755327126        2.9922841767       -2.9725735560
 C          0.2137298179        1.8902920848       -2.3466538315
 C          0.2951057080        1.7675051379       -0.9692506427
 H         -0.1322325092        0.9266801005       -0.4456760136
 H         -0.2729098815        1.1133872178       -2.9153680346
 H          0.7124222887        3.0830376544       -4.0454712249
 H          1.8448392851        4.8326927396       -2.7232982563
 H          1.9881385833        4.5945473267       -0.2392872430
 H          3.3469148368        2.4463935421        1.6611593246
 H          4.7852872029        1.2607793243        0.2497460735
 H          5.2475141070       -0.8348950417       -0.9638615113
 H          3.6130794542       -2.6665005081       -0.9572949038
 H          0.9785228150       -2.9809787500        1.3668758840
 C          1.4672306239       -3.9382373090       -0.4818637084
 C          2.3555992877       -4.9906534202        0.1092874475
 C          0.8887369569       -5.2511928897       -0.0499043478
 H          0.5658599627       -5.9467293513       -0.8098741655
 H          0.2691028814       -5.2545182555        0.8352084116
 H          3.0410862414       -5.5127137171       -0.5408391813
 H          2.7342870119       -4.8216862167        1.1060804235
 H          1.5323982502       -3.7489938528       -1.5467280543
