  62
        -98.93756070
 C         -1.9103542038       -0.4134452138       -0.2237346204
 C         -2.9271085257       -0.8754123721        0.6490103693
 C         -4.1700462461       -0.0914749415        0.6766076985
 C         -4.2619767810        1.0144569120       -0.0840707168
 C         -5.4826167372        1.8793987404       -0.2208834564
 C         -6.5084302266        1.2001562477       -1.1506993718
 C         -7.8106519540        0.7922285021       -0.4614332455
 H         -8.4200972041        1.6836047282       -0.2982268429
 H         -8.3553754025        0.1425843849       -1.1498692010
 C         -7.6577969467        0.0765569557        0.8841678890
 H         -7.4633873775        0.8087366732        1.6693554249
 H         -8.6243868699       -0.3766578419        1.1143821122
 C         -6.5766561105       -1.0100742371        0.9474824475
 H         -6.3702765441       -1.4057268712       -0.0471670328
 H         -6.9630429727       -1.8381572808        1.5451430129
 C         -5.2565602324       -0.5633945434        1.6030753123
 H         -5.4624805371        0.2103848467        2.3479298160
 H         -4.8220065901       -1.4179819558        2.1300134864
 H         -6.7539074289        1.8724083231       -1.9742483161
 H         -6.0384340263        0.3196727975       -1.5937920195
 H         -5.9161456581        2.0610958528        0.7600885910
 H         -5.1600761470        2.8320135713       -0.6417273866
 O         -3.2570523317        1.4392488660       -0.8919240601
 C         -2.0582905354        0.7460531576       -0.9841815284
 O         -1.2369164106        1.2595990987       -1.7675835841
 O         -2.7989268548       -1.8990636809        1.3722433798
 C         -0.6074263336       -1.1945872024       -0.2747577400
 C          0.4704017269       -0.3745838751        0.3889299714
 C          0.5765264956       -0.3828296606        1.7768573927
 C          1.5372972200        0.3770888371        2.4177157556
 C          2.4120240662        1.1627838934        1.6876121751
 C          2.3076849541        1.1833630905        0.3035722822
 C          1.3502513330        0.4108823337       -0.3396368723
 H          1.2718183379        0.4482677220       -1.4144972479
 N          3.2082594394        1.9695740115       -0.4424904552
 S          4.8327523325        1.6523756673       -0.1818815381
 O          5.2664085183        2.3199026418        1.0199574446
 O          5.5073689125        2.0418573314       -1.4000884448
 C          4.9022955308       -0.1159193853        0.0460876591
 C          4.6148600808       -0.9208041162       -1.0385648047
 C          4.5881132434       -2.2946561456       -0.8655493547
 C          4.8421721798       -2.8372797071        0.3848944818
 C          5.1318410990       -2.0160251456        1.4631306317
 C          5.1598300776       -0.6406622647        1.2958439262
 H          5.3780461143        0.0338019373        2.1074050437
 H          5.3297861216       -2.4412535732        2.4338128166
 H          4.8139029362       -3.9072827170        0.5181402030
 H          4.3636011562       -2.9362061144       -1.7025132230
 H          4.4270439906       -0.4649670895       -1.9974952048
 H          2.9991480993        1.9838678814       -1.4303256197
 H          3.1702439339        1.7619556935        2.1656006897
 H          1.6078662859        0.3583105756        3.4945652176
 H         -0.1127060250       -0.9893625972        2.3474235281
 H         -0.7822760865       -2.0852366430        0.3433880650
 C         -0.2516708715       -1.6361992194       -1.6793201261
 C          0.8522736302       -2.6318327150       -1.8722599859
 C         -0.5709559425       -3.0338442781       -2.1134438051
 H         -0.8976340248       -3.1944132091       -3.1300722518
 H         -1.0482742646       -3.6835945023       -1.3948356162
 H          1.5040871547       -2.5179582063       -2.7248272266
 H          1.3442640401       -3.0041094004       -0.9865984718
 H         -0.3624831654       -0.8519124070       -2.4181605723
