  62
        -98.94413539
 C         -2.5373344231       -1.1481261078       -0.0726807296
 C         -3.2053878594       -0.3662943667        0.8992745195
 C         -3.9930977646        0.7592344758        0.3848125653
 C         -4.0514274903        0.9816055098       -0.9412471975
 C         -4.8319838410        2.0733532888       -1.6217668011
 C         -4.0966587639        3.4190698004       -1.6855447409
 C         -3.9916729502        4.1657913688       -0.3551981474
 H         -3.6488830297        5.1774797275       -0.5808357289
 H         -4.9822814740        4.2499493840        0.0925895997
 C         -3.0226236960        3.5305201280        0.6519374668
 H         -2.3622266530        2.8329910861        0.1306292678
 H         -2.3879287992        4.3059253876        1.0874230235
 C         -3.7019169020        2.7984391251        1.8097328118
 H         -4.2639076965        3.5128882843        2.4152502127
 H         -2.9247951859        2.3613810801        2.4429013540
 C         -4.6497602376        1.6719554452        1.3762593368
 H         -5.5660091196        2.0907235768        0.9609972501
 H         -4.9030488312        1.0789791359        2.2585433307
 H         -4.6378102925        4.0531847656       -2.3913388200
 H         -3.0955558979        3.2510555127       -2.0893475163
 H         -5.0150838293        1.7328909634       -2.6430603844
 H         -5.7916247422        2.2047362846       -1.1213300729
 O         -3.3978923739        0.2036561857       -1.8438321334
 C         -2.6031790866       -0.8588697867       -1.4360014195
 O         -2.0274242031       -1.4534275719       -2.3655091340
 O         -3.1418876394       -0.5949595528        2.1383669237
 C         -1.6790819535       -2.3130251989        0.3853403203
 C         -0.2330492667       -2.0583300540        0.0342522624
 C          0.5838462285       -2.9939400217       -0.5855512851
 C          1.9044572604       -2.6907588527       -0.8709344672
 C          2.4390230531       -1.4588768972       -0.5433071310
 C          1.6356162658       -0.5203056528        0.0918967213
 C          0.3148905434       -0.8277765690        0.3777623240
 H         -0.3098281519       -0.0957008986        0.8760897150
 N          2.1681542865        0.7380263080        0.4262966800
 S          3.5972518067        0.7779128612        1.3099830132
 O          3.7424914023       -0.4015758204        2.1312104330
 O          3.5766147546        2.0469749777        2.0042065093
 C          4.8692237695        0.8175892129        0.0653235445
 C          5.8479368689       -0.1566794612        0.0484698001
 C          6.8315574440       -0.1010988690       -0.9268272493
 C          6.8193490956        0.9226203400       -1.8617578247
 C          5.8307897974        1.8950518037       -1.8291902367
 C          4.8451762281        1.8457625694       -0.8564887597
 H          4.0622652509        2.5831413250       -0.7938755432
 H          5.8246290483        2.6896719724       -2.5578133964
 H          7.5848314780        0.9634272108       -2.6204684051
 H          7.6011089324       -0.8556951177       -0.9537102488
 H          5.8139849933       -0.9360306240        0.7929853897
 H          1.4903920684        1.3679988104        0.8306393460
 H          3.4645703037       -1.2181078210       -0.7705559597
 H          2.5255250537       -3.4252730769       -1.3603976242
 H          0.1860656736       -3.9595136082       -0.8505465606
 H         -1.7614567771       -2.3207684091        1.4830822218
 C         -2.2186545578       -3.6215348858       -0.1509468639
 C         -1.9948997179       -4.8955772691        0.6058247405
 C         -3.3598094180       -4.2789513810        0.5637411520
 H         -4.1277076403       -4.7597092343       -0.0234207502
 H         -3.7318511982       -3.7949747390        1.4552046388
 H         -1.8276142103       -5.8045364795        0.0480520050
 H         -1.4408983079       -4.8367975494        1.5306153896
 H         -2.2189204982       -3.6594391464       -1.2342265249
