  62
        -98.93991842
 C         -2.1416469101       -0.7258619742       -0.8188975355
 C         -3.1174359694        0.1364740628       -0.2514285312
 C         -2.9470689913        1.5694301490       -0.5042665009
 C         -1.9231481739        1.9928831288       -1.2664452674
 C         -1.5847240722        3.4225101115       -1.5863047551
 C         -0.7378198963        4.0955918386       -0.4969421347
 C         -1.4975767643        4.4554376911        0.7805815817
 H         -0.8547080905        5.1233310255        1.3573552009
 H         -2.4004870630        5.0109994935        0.5236538035
 C         -1.8635144060        3.2504145461        1.6590725766
 H         -1.2443588992        2.3926311571        1.3802719859
 H         -1.6280420300        3.4772001766        2.7019102387
 C         -3.3388081259        2.8495364007        1.6079863114
 H         -3.4701020499        1.9621422691        2.2325760809
 H         -3.9492630159        3.6519994989        2.0285906583
 C         -3.8624756393        2.5217028561        0.2033657283
 H         -3.9844182284        3.4359884608       -0.3765701464
 H         -4.8362692259        2.0365823016        0.3057056869
 H          0.0969714259        3.4356678227       -0.2447695642
 H         -0.3243228043        5.0136784941       -0.9210627264
 H         -2.4981611647        3.9948402860       -1.7489082681
 H         -1.0088121775        3.4097160520       -2.5139327100
 O         -1.0536578947        1.1337529425       -1.8532732177
 C         -1.0956413207       -0.2273170316       -1.5964948794
 O         -0.1643051536       -0.8538025894       -2.1435595634
 O         -4.0819275056       -0.2776347782        0.4451602829
 C         -2.1929155139       -2.1870945093       -0.3879790356
 C         -1.2040670177       -2.2710425420        0.7495277005
 C         -1.6225133177       -2.1957830209        2.0740509874
 C         -0.7051820399       -2.0245242558        3.0967970076
 C          0.6431057432       -1.8818671895        2.8166370935
 C          1.0658418897       -1.9771377177        1.4993271559
 C          0.1567728007       -2.2203244309        0.4848988624
 H          0.5025476639       -2.2616020195       -0.5366570791
 N          2.4186104987       -1.6875700157        1.1776865615
 S          2.6470120270        0.0015958180        1.2061469335
 O          3.2983249063        0.3289163030        2.4531836381
 O          1.3954641132        0.6843859976        0.9655052753
 C          3.7673232957        0.2627605523       -0.1556937004
 C          3.2478801337        0.2373763840       -1.4368790922
 C          4.1102453082        0.4137565400       -2.5079235559
 C          5.4651537303        0.6065813009       -2.2816645462
 C          5.9692929446        0.6255046367       -0.9899112597
 C          5.1141608474        0.4508987334        0.0867364440
 H          5.4551396175        0.4602985227        1.1088983474
 H          7.0230243195        0.7749478155       -0.8186365549
 H          6.1303796715        0.7427571473       -3.1196681334
 H          3.7162581175        0.3970132595       -3.5116286288
 H          2.1869469674        0.0869351044       -1.5796688184
 H          2.6285533586       -2.0063279298        0.2388949253
 H          1.3638366030       -1.6626025295        3.5886924420
 H         -1.0484525702       -1.9573814963        4.1184053152
 H         -2.6805088098       -2.2201760334        2.2931537831
 H         -3.2012021677       -2.3424894330        0.0167672732
 C         -1.9509200360       -3.1855587009       -1.4971205824
 C         -2.3091892549       -4.6223120290       -1.2640824279
 C         -3.1252357528       -3.7897876144       -2.2051476899
 H         -3.0442852075       -3.9775574723       -3.2651154165
 H         -4.1117356102       -3.4822336214       -1.8906617381
 H         -1.6680225008       -5.3862773528       -1.6759008398
 H         -2.7419307713       -4.8784029663       -0.3088252187
 H         -1.0738567303       -2.9740446796       -2.0938975214
