  62
        -98.94429888
 C         -1.6076397820       -1.3726703464        0.5609272346
 C         -1.5838063036       -0.0508325201        1.0765178407
 C         -2.7277679318        0.7977751282        0.7286900151
 C         -3.7279639684        0.2943029201       -0.0170669075
 C         -4.9827276971        1.0196217530       -0.4217840280
 C         -4.8288776959        1.8751352289       -1.6865447046
 C         -4.0024487878        3.1493512594       -1.5099120632
 H         -4.1511577058        3.7541986840       -2.4066247938
 H         -4.3915189161        3.7183855817       -0.6650812069
 C         -2.4984911047        2.9054014528       -1.3211276275
 H         -1.9361419445        3.5895824513       -1.9601578792
 H         -2.2499081903        1.8917269289       -1.6446209191
 C         -1.9959379198        3.1062287722        0.1086276212
 H         -0.9303280820        2.8661286110        0.1310875389
 H         -2.1150526058        4.1536488573        0.3932399226
 C         -2.6967716559        2.2332025893        1.1578982973
 H         -2.1256968345        2.2898862810        2.0874302244
 H         -3.7067440416        2.5986938018        1.3420801005
 H         -5.8322336930        2.1589463999       -2.0126431247
 H         -4.3860193345        1.2589313830       -2.4725888409
 H         -5.7362466729        0.2529040705       -0.6146817668
 H         -5.3262783619        1.6448684311        0.4026898588
 O         -3.7175060429       -0.9802493442       -0.4869982806
 C         -2.6427342040       -1.8292732586       -0.2550433882
 O         -2.7517746595       -2.9369986846       -0.8145053865
 H          1.4024525482       -0.4058413933        0.2726823562
 C          1.3736859149       -1.1689608214       -0.4906820320
 C          0.4936528818       -2.2352186902       -0.3517170198
 C          0.4437067411       -3.1979558001       -1.3524850153
 C          1.2642056675       -3.0906302556       -2.4615191971
 C          2.1570222306       -2.0410019509       -2.5847205629
 C          2.2111239934       -1.0704517641       -1.5903154312
 N          3.0939034317        0.0156047554       -1.6848952620
 S          3.9100572251        0.5352986955       -0.3156783972
 O          5.0907897866        1.1950487714       -0.8344099249
 O          4.1474947689       -0.5552910799        0.6012781973
 C          2.8544414620        1.7627020696        0.4202283313
 C          2.4584057643        2.8317706219       -0.3592473506
 C          1.6720785466        3.8183074660        0.2116407025
 C          1.2982528410        3.7199613185        1.5441950008
 C          1.7041281761        2.6409670875        2.3121129126
 C          2.4927050515        1.6518883763        1.7469423792
 H          2.8237463973        0.7926410098        2.3086975300
 H          1.4031260305        2.5580185063        3.3437091202
 H          0.6807120567        4.4865796339        1.9853039644
 H          1.3484548015        4.6584110282       -0.3819634194
 H          2.7723852187        2.8731339277       -1.3891324351
 H          3.6995868257       -0.0005819058       -2.4926568693
 H          2.8054497032       -1.9686500023       -3.4450057393
 H          1.2148858435       -3.8406680456       -3.2366636132
 H         -0.2534536886       -4.0157436898       -1.2702394269
 C         -0.4075393684       -2.2574767804        0.8587319798
 H          0.1273746671       -1.7518030232        1.6747642291
 C         -0.7770523523       -3.6508726758        1.3176625582
 C          0.2822442644       -4.5076787058        1.9421583219
 C         -0.8234170281       -3.9490293640        2.7850952994
 H         -1.5849779379       -4.6222804819        3.1491182461
 H         -0.5879761981       -3.1460634145        3.4683234474
 H          1.2684781212       -4.0799465045        2.0478609520
 H          0.2834190952       -5.5656195027        1.7290090857
 H         -1.5167366265       -4.1341770401        0.6927376547
 O         -0.6531288346        0.3948530909        1.7982945360
