  62
        -98.94451171
 C         -1.4936550196       -0.7113660404        0.2844002406
 C         -2.5332268496       -0.7965856208       -0.6744197293
 C         -3.4446474797        0.3556904592       -0.7288047596
 C         -3.2189841398        1.4344827894        0.0408131301
 C         -4.0424265799        2.6932513593        0.0691947197
 C         -5.2760134299        2.6092263195        0.9788225598
 C         -6.4161606398        1.7367721392        0.4519804200
 H         -7.2892566698        1.9408743093        1.0750942900
 H         -6.6648513199        2.0405248889       -0.5653466001
 C         -6.1284703197        0.2291942993        0.4854344104
 H         -5.2873561297        0.0331838095        1.1545814105
 H         -6.9925757296       -0.2972933707        0.8971215406
 C         -5.8293931897       -0.3894204311       -0.8802806394
 H         -6.7152291797       -0.3198789713       -1.5155128094
 H         -5.6025952396       -1.4485604910       -0.7338056191
 C         -4.6468732697        0.2517162388       -1.6182005696
 H         -4.3816457997       -0.3883771814       -2.4629818594
 H         -4.9280195098        1.2336816787       -1.9974817199
 H         -4.9624952298        2.2449812498        1.9600327999
 H         -5.6555281200        3.6255166895        1.1080110595
 H         -3.3909088000        3.4839060495        0.4473292895
 H         -4.3527895299        2.9524304190       -0.9433433004
 O         -2.1645849298        1.5095867797        0.8964097900
 C         -1.3087762297        0.4345462498        1.0637109803
 O         -0.4235628597        0.6200069302        1.9239884502
 H          2.1097170705       -1.3310112099        1.0549210807
 C          1.9292522705       -1.4708439102        0.0000294708
 C          0.6481751105       -1.7451468504       -0.4550312891
 C          0.4445834605       -1.9282148008       -1.8190180691
 C          1.5057681804       -1.8358596610       -2.7002537291
 C          2.7805763404       -1.5463881907       -2.2448556892
 C          2.9937022904       -1.3593947903       -0.8843662793
 N          4.2791920704       -1.0808504101       -0.3928131994
 S          4.5135037003        0.0833932803        0.7858498603
 O          5.9432998103        0.3039794304        0.7830847302
 O          3.9426946204       -0.3532882994        2.0334305604
 C          3.6859517102        1.5358550100        0.1645907499
 C          2.3682586602        1.7867319800        0.4882386399
 C          1.7452883701        2.8935927398       -0.0685994404
 C          2.4419759700        3.7263940396       -0.9293624707
 C          3.7680867200        3.4629114396       -1.2397196806
 C          4.3949039301        2.3558442098       -0.6934917103
 H          5.4266397101        2.1202550399       -0.8990299503
 H          4.3110432199        4.1151492795       -1.9045762408
 H          1.9493465799        4.5859961794       -1.3559300909
 H          0.7136963401        3.0878270598        0.1821148795
 H          1.8340291102        1.1393417801        1.1659296601
 H          4.9901267204       -1.0103892402       -1.1066540894
 H          3.6063497404       -1.4700011108       -2.9357187492
 H          1.3379126704       -1.9827693113       -3.7564373891
 H         -0.5521311595       -2.1325622010       -2.1786088990
 C         -0.4903663095       -1.8271416402        0.5332463709
 H         -0.0724941695       -1.6347891299        1.5314899809
 C         -1.1111071794       -3.2100436703        0.5394226513
 C         -0.3859199593       -4.3207171200        1.2348788816
 C         -1.6477345193       -3.7647287300        1.8227124915
 H         -2.5435356993       -4.3665345401        1.7896463517
 H         -1.5691582394       -3.1482794097        2.7070376313
 H         -0.4131849492       -5.3071372202        0.7981554419
 H          0.5483908807       -4.0809611998        1.7209926515
 H         -1.6492460094       -3.4482184806       -0.3679621086
 O         -2.7139789695       -1.7667803210       -1.4554539691
