  62
        -98.94293954
 C          2.4957659364        0.8397506822        0.4844594022
 C          2.5855930211       -0.3418175989       -0.2900284767
 C          3.7556576237       -1.1876521454       -0.0219237152
 C          4.6376585891       -0.8298433180        0.9290662544
 C          5.8642555019       -1.6011412077        1.3349896126
 C          7.0891402015       -1.3360152215        0.4490058241
 C          7.0268523449       -1.9543745416       -0.9481604575
 H          6.7893174136       -3.0152889640       -0.8642647981
 H          8.0279865978       -1.8775660265       -1.3770619388
 C          6.0300642094       -1.2750847943       -1.8976277615
 H          6.5042392241       -1.1141090121       -2.8684885407
 H          5.7650045102       -0.2908980526       -1.5044007261
 C          4.7479796144       -2.0698853783       -2.1461912105
 H          4.9893365273       -3.0028848740       -2.6602376295
 H          4.1019902387       -1.4811656626       -2.8024588713
 C          3.9543144940       -2.4032927988       -0.8760230210
 H          4.4589291376       -3.1875147293       -0.3121746027
 H          2.9664329129       -2.7640640617       -1.1727570390
 H          7.9599619531       -1.7458416271        0.9658736984
 H          7.2313671717       -0.2561782196        0.3638929986
 H          5.6413360917       -2.6684038098        1.3402655937
 H          6.1032016202       -1.2903811386        2.3543619349
 O          4.4993224224        0.3027453478        1.6695446771
 C          3.4404167114        1.1699049825        1.4556566831
 O          3.4453861302        2.1800564264        2.1888893755
 O          1.7366342094       -0.6749159940       -1.1568192216
 C          1.3360349187        1.7954962908        0.2721738811
 C          0.0268390421        1.0832593513        0.5128542257
 C         -0.1373927770        0.3650291089        1.6946983475
 C         -1.3219706877       -0.2914775373        1.9649155296
 C         -2.3727383781       -0.2457706541        1.0647934392
 C         -2.2259560679        0.4781484653       -0.1092454397
 C         -1.0333442942        1.1402725656       -0.3770354435
 H         -0.9368066775        1.6971792986       -1.2960799120
 N         -3.2865379924        0.5274919246       -1.0279116706
 S         -4.8284118642        0.8766194641       -0.4697001948
 O         -5.5245541537        1.4315289641       -1.6101014014
 O         -4.7874623662        1.6967958487        0.7185725989
 C         -5.5220928272       -0.7183922479       -0.0889942950
 C         -6.0543476755       -0.9561001785        1.1629821983
 C         -6.6023313761       -2.2004415021        1.4332057831
 C         -6.6093563083       -3.1792338841        0.4513780925
 C         -6.0725324379       -2.9238374267       -0.8017887236
 C         -5.5240400344       -1.6818824819       -1.0784832386
 H         -5.0999687439       -1.4438209834       -2.0397014070
 H         -6.0795325820       -3.6877756009       -1.5625427899
 H         -7.0362178906       -4.1467549042        0.6636659250
 H         -7.0204296283       -2.4009084362        2.4066284888
 H         -6.0230827764       -0.1664595431        1.8969124698
 H         -3.0771996384        1.0390474048       -1.8726708834
 H         -3.2984330267       -0.7589775648        1.2676342948
 H         -1.4295043539       -0.8475790954        2.8839844445
 H          0.6830667240        0.3282800025        2.3990196622
 H          1.4400243552        2.5760643593        1.0403090909
 C          1.4408126939        2.4417610872       -1.0936910427
 C          0.8551374467        3.8001674130       -1.3336495452
 C          2.3420481130        3.6258495386       -1.2655620739
 H          2.9143749253        3.7113189985       -2.1771093328
 H          2.8615881890        3.9844336772       -0.3887320781
 H          0.4091607626        4.0098512574       -2.2946168454
 H          0.3627063406        4.2862606716       -0.5046780420
 H          1.4078283374        1.7182391248       -1.9004965995
