  62
        -98.93511804
 C          1.4420250573        0.8427962820        0.5050594383
 C          2.5222988401        0.9814818549       -0.3986460370
 C          3.4538545942       -0.1616719239       -0.4869463115
 C          3.2287667114       -1.2677054553        0.2445277795
 C          3.9675750249       -2.5882907018        0.3065088834
 C          5.3910901057       -2.7139860239       -0.2311835699
 C          6.4396496006       -1.9045408885        0.5300611495
 H          6.5559826269       -2.3342500276        1.5283154929
 H          7.3942656815       -2.0103493214        0.0098393492
 C          6.1299602813       -0.4191771390        0.7001342403
 H          5.2445742384       -0.2983414238        1.3280367000
 H          6.9668627458        0.0369831460        1.2361432588
 C          5.9289885315        0.3604333166       -0.5984029373
 H          6.7874293599        0.2070149800       -1.2550875158
 H          5.8919515049        1.4222207877       -0.3402141094
 C          4.6450779416        0.0299500373       -1.3806698099
 H          4.4128697881        0.8837379344       -2.0236153307
 H          4.7842669395       -0.8352691919       -2.0242420213
 H          5.6628576642       -3.7695476353       -0.1437818323
 H          5.4190475645       -2.4685252788       -1.2886738624
 H          3.9568945281       -2.8832281387        1.3605845287
 H          3.3363162548       -3.3105367238       -0.2228914326
 O          2.1521566696       -1.3673232029        1.0794802161
 C          1.2598483192       -0.3254884968        1.2463857175
 O          0.3562914638       -0.5566841980        2.0755702857
 H         -2.2194232823        1.3684568758        1.1867883312
 C         -1.9979665456        1.4541552093        0.1335585185
 C         -0.7097034124        1.7477555887       -0.2871363160
 C         -0.4522998005        1.8368134709       -1.6529887120
 C         -1.4688954657        1.6459822345       -2.5693913187
 C         -2.7518723729        1.3415632138       -2.1464405810
 C         -3.0159297617        1.2388921686       -0.7866430396
 N         -4.3071969823        0.9234496472       -0.3251736514
 S         -4.4773489674       -0.3275911785        0.7780767328
 O         -5.8844403869       -0.6610636817        0.7284900370
 O         -3.9670397275        0.0762299723        2.0618020320
 C         -3.5169857896       -1.6585849847        0.0809709042
 C         -4.1184214593       -2.4473860856       -0.8818615620
 C         -3.3766429910       -3.4413198576       -1.4974461558
 C         -2.0460386547       -3.6232964483       -1.1499027170
 C         -1.4588742365       -2.8235527545       -0.1827488508
 C         -2.1967037363       -1.8297054976        0.4425615741
 H         -1.7495859639       -1.2047159010        1.1999533780
 H         -0.4252637306       -2.9554579623        0.0985334802
 H         -1.4641316146       -4.3932444312       -1.6317590494
 H         -3.8334748612       -4.0682854943       -2.2460935648
 H         -5.1573256520       -2.2783302398       -1.1152548226
 H         -4.9909024243        0.8270298143       -1.0631002046
 H         -3.5436834588        1.1844559125       -2.8630401182
 H         -1.2595534305        1.7248822309       -3.6253621385
 H          0.5524556031        2.0572110800       -1.9802028789
 C          0.3935300266        1.9224895337        0.7248544983
 H         -0.0341456740        1.7095594608        1.7174614901
 C          0.9771238992        3.3289929196        0.7694530553
 C          0.5347926358        4.4387316928       -0.1332151792
 C          0.1442055787        4.4532178680        1.3116427962
 H          0.6063748841        5.1713859063        1.9721182119
 H         -0.8849565225        4.2309676790        1.5540655984
 H         -0.2326784422        4.2343917407       -0.8628531377
 H          1.2872087280        5.1334845115       -0.4742999707
 H          2.0254737393        3.3309813051        1.0466328958
 O          2.7199361363        1.9977335432       -1.1115316617
