  62
        -98.94504139
 C         -1.1643891628       -1.8359356750       -0.6814163919
 C         -0.4884986234       -2.3615630690        0.4495221076
 C          0.9395765848       -2.6756344098        0.2510979804
 C          1.5130856111       -2.4599186734       -0.9450156639
 C          2.9607904651       -2.6902198677       -1.2660317583
 C          3.8038018758       -1.4314123240       -1.0220520855
 C          3.6001545809       -0.7997707304        0.3551438163
 H          4.2947493726        0.0400361130        0.4347660339
 H          2.5939355590       -0.3811502427        0.4234434527
 C          3.8137168360       -1.7547613838        1.5371791236
 H          4.3888759155       -2.6256198729        1.2184804437
 H          4.3992475098       -1.2381919230        2.3006641016
 C          2.5172412196       -2.2130662824        2.2087530390
 H          1.8895872461       -1.3417260808        2.4145381710
 H          2.7727257180       -2.6671505942        3.1705526847
 C          1.6870386429       -3.2393169965        1.4263151623
 H          2.3271728017       -4.0677617379        1.1127337984
 H          0.9236917954       -3.6323565483        2.1047197866
 H          4.8555469294       -1.6958144324       -1.1471453016
 H          3.5467132537       -0.6860198604       -1.7781853780
 H          3.3341777378       -3.5123241548       -0.6583892688
 H          3.0359469842       -2.9660647851       -2.3194594720
 O          0.8290293388       -1.9725332391       -2.0120406808
 C         -0.5096833759       -1.6351025173       -1.9000458498
 O         -1.0072480197       -1.1758153842       -2.9475750032
 H         -1.2384644027        0.0987999623        1.1387574613
 C         -1.8569079876        0.7134347137        0.5020092014
 C         -2.6561753963        0.1219169681       -0.4666033505
 C         -3.4579611839        0.9348988927       -1.2587058614
 C         -3.4529622013        2.3078172622       -1.0871511363
 C         -2.6273238651        2.8958172012       -0.1459598641
 C         -1.8173736085        2.0925169008        0.6491361509
 N         -0.9506956329        2.6605987314        1.6003239678
 S          0.6553911349        2.1872664370        1.6332015473
 O          0.7618030639        0.8174370996        2.0573697829
 O          1.3015835657        3.1721465596        2.4725686709
 C          1.2245147104        2.3686185034       -0.0465194867
 C          1.8556612322        3.5394123849       -0.4189181189
 C          2.2573235825        3.6946982523       -1.7357840975
 C          2.0114656351        2.6877573640       -2.6576400720
 C          1.3722638885        1.5201747482       -2.2702078445
 C          0.9777345698        1.3569159784       -0.9520866763
 H          0.4809412393        0.4566078235       -0.6258922677
 H          1.1636467060        0.7328850053       -2.9787632435
 H          2.3186005711        2.8101481810       -3.6843002320
 H          2.7576049611        4.5995715566       -2.0411119210
 H          2.0301367352        4.2936236595        0.3313100087
 H         -1.0125829724        3.6670751691        1.6628904940
 H         -2.6045946526        3.9683687677       -0.0270405080
 H         -4.0826058733        2.9285120425       -1.7059143967
 H         -4.0731759548        0.4853273391       -2.0238996993
 C         -2.6141588049       -1.3728750902       -0.6706032741
 H         -2.9952395633       -1.5720472256       -1.6858377942
 C         -3.5061940609       -2.1295532945        0.3005912375
 C         -3.9880711601       -1.5497975093        1.5927128998
 C         -4.9455912336       -1.7357964794        0.4562846104
 H         -5.6883899196       -2.5156838464        0.5276923851
 H         -5.2804241316       -0.8502100801       -0.0623187713
 H         -3.6813979050       -0.5468478386        1.8473586893
 H         -4.0483023078       -2.2102092913        2.4442058107
 H         -3.2893616157       -3.1923168950        0.3044545407
 O         -1.0255992353       -2.5792082335        1.5646063404
