  62
        -98.94755638
 C         -0.7607236640       -1.2677235789        0.0675438623
 C         -1.4716122927       -0.5656977811        1.0688893117
 C         -2.4077439652        0.4596669242        0.5899126275
 C         -2.4803501048        0.7187170068       -0.7284019776
 C         -3.4531590846        1.6691810256       -1.3624319586
 C         -4.7470265880        0.9445335121       -1.7625623117
 C         -5.3416044067        0.0765569453       -0.6532534956
 H         -6.2647201651       -0.3593449338       -1.0416088141
 H         -4.6601769680       -0.7510727688       -0.4430213654
 C         -5.6419729441        0.8280663404        0.6512360267
 H         -6.6297513613        0.5289165356        1.0081789735
 H         -5.6781827749        1.9012315647        0.4609846984
 C         -4.6553023862        0.5480286837        1.7865161642
 H         -5.0768973306        0.9511562486        2.7112821796
 H         -4.5470792092       -0.5313107933        1.9208046729
 C         -3.2573333474        1.1564732305        1.6149771032
 H         -3.3507919177        2.2193767554        1.3857894218
 H         -2.7281994508        1.0509493066        2.5666916636
 H         -4.5329430793        0.3019204952       -2.6195733706
 H         -5.4796029978        1.6917738268       -2.0728739126
 H         -3.6784759603        2.4734964605       -0.6656432182
 H         -2.9928686697        2.0859988308       -2.2590336288
 O         -1.7097385766        0.0891203438       -1.6509224742
 C         -0.8595755237       -0.9433208603       -1.2855526554
 O         -0.2585176035       -1.4760242090       -2.2370020959
 H          1.5423774057       -0.1601501119        0.4397277368
 C          2.1088150418       -0.9694341673        0.0019803019
 C          1.5365125177       -2.2327988338       -0.0722229749
 C          2.2816858291       -3.2679325879       -0.6223923326
 C          3.5593542075       -3.0328302917       -1.0994846122
 C          4.1212357308       -1.7719290211       -1.0317720394
 C          3.3862782375       -0.7299781692       -0.4760312106
 N          3.9107350101        0.5669063280       -0.4258633480
 S          3.4239143621        1.6666735973        0.7245339417
 O          4.4158344186        2.7189674098        0.6493513075
 O          3.2601530226        1.0539003169        2.0225153393
 C          1.8728335863        2.3071142167        0.1330365256
 C          0.8686041952        2.5735841584        1.0419285572
 C         -0.3084025398        3.1486121449        0.5920220212
 C         -0.4621415705        3.4413375317       -0.7536873736
 C          0.5500505702        3.1548427772       -1.6562062055
 C          1.7332174334        2.5879820010       -1.2112272853
 H          2.5421474673        2.3581434382       -1.8846466233
 H          0.4223096960        3.3737468853       -2.7041588230
 H         -1.3759652542        3.8966880635       -1.1001634920
 H         -1.0965587255        3.3641163107        1.2949648782
 H          1.0221689290        2.3175090156        2.0787176356
 H          4.8769989569        0.6680798793       -0.6964190752
 H          5.1156511624       -1.5886961056       -1.4089696948
 H          4.1262448108       -3.8442463804       -1.5301792135
 H          1.8614063915       -4.2582774773       -0.6840096106
 C          0.1422643049       -2.4177253237        0.4714379877
 H          0.1976117550       -2.3783051483        1.5703968771
 C         -0.4927816179       -3.7326222448        0.0636551198
 C         -0.2763317974       -4.9700228061        0.8811642795
 C         -1.6084212194       -4.2843445261        0.8979754779
 H         -2.4413417152       -4.7578647509        0.4000502600
 H         -1.8868742738       -3.7266435154        1.7803950445
 H         -0.1971172977       -5.9184294016        0.3714007068
 H          0.3461376745       -4.8867197011        1.7593196523
 H         -0.5750280130       -3.8357540229       -1.0129946673
 O         -1.3414666928       -0.7963011212        2.3023941373
