  62
        -98.93166589
 C         -2.3142931749       -1.0109829404        0.8031513013
 C         -3.1102001069       -0.6482670683       -0.3101097783
 C         -3.8971321165        0.5857430756       -0.1605243339
 C         -3.8099502112        1.3019722847        0.9743343379
 C         -4.5822594130        2.5486291986        1.3172548121
 C         -4.2974787660        3.7903458137        0.4504369633
 C         -5.2548892413        3.9675580731       -0.7345323849
 H         -6.1894699638        3.4514720147       -0.5114727272
 H         -5.4983920619        5.0273115756       -0.8338480771
 C         -4.7258554401        3.5017655307       -2.0944371320
 H         -4.0334616827        4.2514398732       -2.4841815892
 H         -5.5725431711        3.4479773627       -2.7821863924
 C         -3.9965685775        2.1580029487       -2.1021030637
 H         -3.8501579365        1.8546279407       -3.1406887702
 H         -2.9981003874        2.2776461751       -1.6745157363
 C         -4.7169331826        1.0315009424       -1.3362304988
 H         -5.7051680894        1.3559341821       -1.0135485179
 H         -4.8335963700        0.1592702173       -1.9825175109
 H         -3.2643503279        3.7639165932        0.1050670052
 H         -4.3985907044        4.6596773543        1.1021055462
 H         -5.6495700574        2.3189556390        1.2803064634
 H         -4.3254154649        2.7722009722        2.3547253797
 O         -2.9993484210        0.9368768516        2.0061161193
 C         -2.2271400906       -0.2090254152        1.9413945364
 O         -1.5118356420       -0.4031224684        2.9467326007
 H          0.5179667688       -0.5459959160        0.9580685119
 C          0.6043811339       -1.1206938432        0.0435810062
 C         -0.3526959828       -2.0922253935       -0.2275798745
 C         -0.2361018845       -2.8319310882       -1.3954980411
 C          0.8078293965       -2.5896394728       -2.2729673342
 C          1.7525540451       -1.6168842760       -2.0051994557
 C          1.6497764363       -0.8762587454       -0.8335966488
 N          2.6022634160        0.1245026368       -0.5519560976
 S          4.2251639345       -0.3142605938       -0.7421447749
 O          4.5586105936       -0.2257941524       -2.1415255049
 O          4.4693881625       -1.5945868811       -0.1159313794
 C          5.0484222186        0.9854843793        0.1557145126
 C          5.2631909538        2.1964481998       -0.4745830384
 C          5.8889662517        3.2142005245        0.2274095376
 C          6.2864204276        3.0056105480        1.5398654501
 C          6.0639244636        1.7847011017        2.1587365265
 C          5.4374806749        0.7627388181        1.4628303351
 H          5.2527205144       -0.2051630369        1.9009821417
 H          6.3758942624        1.6246209287        3.1782629365
 H          6.7756010147        3.7983689138        2.0834382571
 H          6.0662108764        4.1641865871       -0.2503870060
 H          4.9461556487        2.3090466287       -1.4981426580
 H          2.4533874991        0.5308709219        0.3623036336
 H          2.5725924401       -1.4272388441       -2.6787647568
 H          0.8866069718       -3.1684477127       -3.1810132133
 H         -0.9652023219       -3.5909209943       -1.6249649943
 C         -1.4667776919       -2.2726705402        0.7760216012
 H         -1.0069570248       -2.3458699259        1.7719990602
 C         -2.3158984805       -3.5032153789        0.5435162759
 C         -1.7860308666       -4.8499603242        0.9310974297
 C         -2.8914266536       -4.2224790620        1.7247642614
 H         -3.8854982127       -4.6353738851        1.6418522198
 H         -2.6609973826       -3.8343541000        2.7064784918
 H         -2.0209148845       -5.6972174756        0.3050390407
 H         -0.8020176044       -4.8898343385        1.3737547885
 H         -2.9326258787       -3.4318231416       -0.3437323127
 O         -3.1791580656       -1.3192856677       -1.3717518885
