  62
        -98.93772479
 C         -1.7904489052       -0.8525181172       -0.7751493347
 C         -2.0600960400       -0.0251975640        0.3390326754
 C         -3.4769956283        0.1130094947        0.7247481891
 C         -4.4222379564       -0.5364241027        0.0198408404
 C         -5.9237193987       -0.6166369915        0.2033836462
 C         -6.6538612656        0.3646251751        1.1167328489
 C         -6.6560704045        1.8127504702        0.6284276024
 H         -7.2822488927        1.8768341285       -0.2650824318
 H         -7.1160169711        2.4324385878        1.4013258974
 C         -5.2885070280        2.3919696253        0.2749723985
 H         -4.8635155796        1.8414200609       -0.5667744874
 H         -5.4388482125        3.4225242025       -0.0580667892
 C         -4.2731609957        2.4158767338        1.4158346356
 H         -3.4097825980        2.9931935347        1.0749336942
 H         -4.7010819768        2.9311048964        2.2779474899
 C         -3.7567810150        1.0401677840        1.8722314863
 H         -2.8006512198        1.1898071442        2.3821888579
 H         -4.4367922906        0.5775968434        2.5835203325
 H         -7.6941300006        0.0307310753        1.1626074964
 H         -6.2599621386        0.3035785840        2.1268825515
 H         -6.3495102154       -0.5527330420       -0.8030490005
 H         -6.1253066599       -1.6337147123        0.5577195313
 O         -4.1076723166       -1.3361662414       -1.0426680315
 C         -2.8031225176       -1.5121820326       -1.4670788073
 O         -2.6780373963       -2.2705996935       -2.4505205690
 O         -1.1626447982        0.5683480116        0.9909754446
 C         -0.3605966671       -1.0459826775       -1.2446379121
 C          0.4826890598       -1.6089544623       -0.1264680353
 C         -0.0006452101       -2.6905399892        0.6058722083
 C          0.7385345761       -3.2293187759        1.6402897273
 C          1.9805918166       -2.7093517868        1.9604032036
 C          2.4775726957       -1.6375631981        1.2297103836
 C          1.7299072482       -1.0964849645        0.1918816045
 H          2.1346313666       -0.2705657201       -0.3674335521
 N          3.7174892323       -1.0714278028        1.5496636027
 S          4.7016442367       -0.4040779241        0.3798574708
 O          4.6624431152       -1.1603477288       -0.8501569830
 O          5.9982522927       -0.3037176426        1.0160741571
 C          4.0586941094        1.2349874151        0.1138523761
 C          4.1337813057        1.7783193549       -1.1535324531
 C          3.6640618933        3.0655461483       -1.3616251377
 C          3.1311010020        3.7841450310       -0.3028352572
 C          3.0669827990        3.2257337117        0.9645766828
 C          3.5378445024        1.9404789424        1.1800650072
 H          3.4944367245        1.4763722454        2.1511597727
 H          2.6469477990        3.7855204393        1.7847165547
 H          2.7612137919        4.7840255923       -0.4670978178
 H          3.7131154387        3.5016957181       -2.3468742417
 H          4.5458919664        1.1790196083       -1.9500907199
 H          4.2380236931       -1.5386954541        2.2765381674
 H          2.5579165053       -3.1272472382        2.7710157647
 H          0.3471607077       -4.0640928149        2.2023734600
 H         -0.9704361630       -3.0991747780        0.3549287356
 H         -0.4016049617       -1.7957578264       -2.0488831007
 C          0.1763961507        0.2511711582       -1.8135801224
 C          1.2263057578        0.2333316856       -2.8820969301
 C         -0.1796722781        0.6270801924       -3.2192625323
 H         -0.3862679434        1.6634197542       -3.4397142346
 H         -0.7883991970       -0.0685260727       -3.7789165456
 H          1.9841719478        1.0018988448       -2.8692816682
 H          1.5834374911       -0.7286835979       -3.2181451964
 H          0.2109671403        1.0452475509       -1.0762103804
