  62
        -98.93567733
 C         -2.3524928584       -1.2707481650        0.1753536933
 C         -3.2784618645       -0.6209392602        1.0273800288
 C         -4.0838252286        0.4607509211        0.4337254126
 C         -3.8739123585        0.7971938515       -0.8504310758
 C         -4.5391517244        1.8975828825       -1.6301358694
 C         -3.7032726170        3.1875389867       -1.5721418667
 C         -3.9910214049        4.0892275884       -0.3720214092
 H         -3.2466917596        4.8890003020       -0.3817168194
 H         -4.9717706645        4.5523907210       -0.4986317942
 C         -3.9503519141        3.3964591759        0.9926696197
 H         -3.0913948053        2.7236835078        1.0367240205
 H         -3.7964561088        4.1646363761        1.7531205359
 C         -5.2386665371        2.6255468894        1.3175907738
 H         -5.5998179716        2.9256790073        2.3033663319
 H         -6.0122659574        2.9103139898        0.6048630239
 C         -5.0984855556        1.0964400923        1.3446954926
 H         -6.0764547900        0.6455376635        1.1459332466
 H         -4.8056038258        0.7759177930        2.3495540526
 H         -2.6469134801        2.9039366088       -1.5761708563
 H         -3.8870146600        3.7654080437       -2.4802439397
 H         -4.5838866733        1.5599203129       -2.6676662497
 H         -5.5502878655        2.0674338859       -1.2722095453
 O         -2.9393412331        0.1801604395       -1.6234884750
 C         -2.1506613045       -0.8547201992       -1.1418280298
 O         -1.3367207743       -1.2958894603       -1.9729885374
 O         -3.4188517202       -0.9240000152        2.2433588958
 C         -1.5057314685       -2.3819507903        0.7711226429
 C         -0.0527603837       -2.1499133533        0.4403138936
 C          0.7301268974       -3.0401920662       -0.2811954621
 C          2.0504390573       -2.7374435040       -0.5661601615
 C          2.6181879344       -1.5521166590       -0.1373399808
 C          1.8425458182       -0.6518455535        0.5816893701
 C          0.5230663659       -0.9602855330        0.8705610912
 H         -0.0839665267       -0.2544023258        1.4258299980
 N          2.4112796181        0.5539265040        1.0313068012
 S          3.2368206386        1.5028419427       -0.0825204724
 O          3.1719394544        2.8463466298        0.4527625941
 O          2.7315062096        1.3215384537       -1.4235206622
 C          4.9145631113        0.9167185421        0.0286785723
 C          5.5804436631        0.5169045270       -1.1132420117
 C          6.8889135195        0.0716901356       -1.0046666253
 C          7.5046927013        0.0354451518        0.2369737890
 C          6.8225468930        0.4427362590        1.3739563124
 C          5.5151170686        0.8903229664        1.2722704715
 H          4.9512763430        1.2180068828        2.1295394445
 H          7.3046368872        0.4127257701        2.3377452475
 H          8.5221742798       -0.3127493037        0.3190339241
 H          7.4201810909       -0.2452632101       -1.8877007055
 H          5.0575814421        0.5556441556       -2.0557711715
 H          1.7743299627        1.1229448146        1.5705558515
 H          3.6435053569       -1.3107279311       -0.3655331022
 H          2.6455853750       -3.4344865757       -1.1361608002
 H          0.2990583615       -3.9577120111       -0.6460299516
 H         -1.6264703041       -2.2583212073        1.8607771444
 C         -1.9869191570       -3.7870335910        0.4442547327
 C         -3.4356669029       -4.0617280960        0.1762504645
 C         -2.4319981464       -4.1904728639       -0.9282077617
 H         -2.1802275696       -5.1817117816       -1.2761496932
 H         -2.4136039173       -3.4393037810       -1.7018945986
 H         -3.8720384497       -4.9605679365        0.5851982539
 H         -4.1099026809       -3.2176207363        0.1585459520
 H         -1.4570315802       -4.5374196765        1.0229366694
