  62
        -98.93183604
 C          2.5486536154        1.1512744474        0.5349856816
 C          3.4174909735        0.9280837541       -0.5596588328
 C          4.5688494265        0.0368007744       -0.3060649104
 C          4.7249104596       -0.5122252131        0.9098376457
 C          5.7824809058       -1.4872835390        1.3477509052
 C          5.2825233619       -2.9339778490        1.1958352045
 C          5.5158850389       -3.5546350278       -0.1810285658
 H          6.5826883849       -3.7491694898       -0.3103253653
 H          5.0032689098       -4.5192295164       -0.1934698588
 C          5.0236241782       -2.7212149992       -1.3671543554
 H          4.9003500287       -3.3926398445       -2.2191688193
 H          4.0409633147       -2.3032421236       -1.1408976067
 C          5.9937001316       -1.5965340141       -1.7584189526
 H          6.9479809767       -1.7597025897       -1.2577291156
 H          6.1943660201       -1.6496129373       -2.8305268147
 C          5.4971256812       -0.1713270018       -1.4718695687
 H          4.9398704610        0.2000661797       -2.3376576280
 H          6.3617593171        0.4898464443       -1.3507743839
 H          5.7850361108       -3.5581547940        1.9375637959
 H          4.2146373039       -2.9450727603        1.4290372789
 H          5.9664667753       -1.2921346272        2.4063284694
 H          6.7048490747       -1.3295254460        0.7968046438
 O          3.8593248136       -0.2768968660        1.9348957680
 C          2.7638902175        0.5473394588        1.7763847533
 O          2.0636787300        0.6738000094        2.8019591300
 O          3.2582519378        1.4305518860       -1.7011700253
 C          1.3197746178        2.0426884313        0.4566771217
 C          0.1231636873        1.2512606623       -0.0055354347
 C          0.1555596862        0.5139382756       -1.1853426653
 C         -0.9523572898       -0.2081324364       -1.5893074902
 C         -2.1082233128       -0.2172205899       -0.8275679879
 C         -2.1511908363        0.5134848875        0.3517606571
 C         -1.0384895722        1.2437149313        0.7519022951
 H         -1.0713220734        1.8015520966        1.6784438554
 N         -3.3110622207        0.4917329400        1.1408587763
 S         -4.8056264522        0.7012339082        0.4098554549
 O         -4.7013244266        1.5145415806       -0.7789706381
 O         -5.6682943425        1.2006384694        1.4578202129
 C         -5.3074262790       -0.9519855323       -0.0187911375
 C         -5.3097987605       -1.9102792098        0.9757279517
 C         -5.7056709824       -3.2002015683        0.6605204175
 C         -6.0930977739       -3.5076919415       -0.6353630250
 C         -6.0890761731       -2.5332682011       -1.6215428668
 C         -5.6932841344       -1.2410001346       -1.3129535214
 H         -5.6687015054       -0.4527520270       -2.0485663823
 H         -6.3910574490       -2.7741959035       -2.6281544687
 H         -6.3999559150       -4.5129014161       -0.8777618956
 H         -5.7099389343       -3.9607160334        1.4247189610
 H         -5.0040079489       -1.6316327613        1.9704239396
 H         -3.2402293187        1.0229274425        1.9962206517
 H         -2.9721117868       -0.7810797379       -1.1392524122
 H         -0.9153256713       -0.7745779388       -2.5075241767
 H          1.0559536866        0.5191298471       -1.7806959212
 H          1.1274619045        2.3513914732        1.4967578011
 C          1.5492943382        3.3136030958       -0.3501316135
 C          0.8881652233        3.6049906512       -1.6601430039
 C          0.4656873573        4.3484929383       -0.4311118333
 H          0.7326511503        5.3897612286       -0.3321240821
 H         -0.4944555419        4.0968265457       -0.0044409428
 H          1.4709765593        4.1210324370       -2.4076230475
 H          0.2090871470        2.8734075214       -2.0683945786
 H          2.5626408159        3.6844757218       -0.2353826796
