  62
        -98.94308955
 C         -1.8558774874       -0.8089899803        0.7258273233
 C         -2.8247002777       -1.1997398478       -0.2310682479
 C         -4.1653187343       -0.6170889674       -0.0616067356
 C         -4.4036622822        0.2184311431        0.9643951137
 C         -5.7027479309        0.9275988343        1.2123087147
 C         -5.7252848453        2.3004393081        0.5255679337
 C         -5.2960531875        2.2653636369       -0.9413883054
 H         -5.3807625284        3.2831976946       -1.3284546039
 H         -4.2405517793        1.9883855246       -0.9973783287
 C         -6.1179833876        1.3133852352       -1.8216327436
 H         -7.0585783315        1.0704743479       -1.3259475870
 H         -6.3656639469        1.8257332586       -2.7536861831
 C         -5.3964446505        0.0193320094       -2.2023654751
 H         -4.4121445601        0.2565848693       -2.6138279549
 H         -5.9724773755       -0.4707261307       -2.9917435558
 C         -5.2123281674       -0.9988621911       -1.0701659053
 H         -6.1704925417       -1.1829115706       -0.5804765739
 H         -4.8688717146       -1.9354498260       -1.5186322845
 H         -6.7350282807        2.7080290260        0.6017577531
 H         -5.0479758110        2.9677527123        1.0639309407
 H         -6.5223986102        0.3127580875        0.8456582597
 H         -5.8184385819        1.0676625837        2.2884349081
 O         -3.4564785697        0.5521463378        1.8782482315
 C         -2.1673428021        0.0594213883        1.7764146325
 O         -1.3999641197        0.4533678883        2.6787743458
 H          1.3248590905        0.7317511230        1.0499921015
 C          1.2082776260        0.4876375448        0.0041563813
 C          0.3484451417       -0.5328622385       -0.3794337232
 C          0.1941929296       -0.8025247674       -1.7357975938
 C          0.8833841148       -0.0626900991       -2.6787836038
 C          1.7522446063        0.9426090446       -2.2920829052
 C          1.9121299441        1.2220396901       -0.9405343498
 N          2.7876223086        2.2390515672       -0.5158202398
 S          3.9320193723        1.8697833864        0.6487256165
 O          3.3045526909        1.7024593201        1.9339209484
 O          4.9126350376        2.9280538975        0.5461246747
 C          4.6332102068        0.3285390154        0.0893884005
 C          4.1421954206       -0.8629339450        0.5830221119
 C          4.6370257364       -2.0531522825        0.0735968077
 C          5.6083901309       -2.0307221752       -0.9150817400
 C          6.0966120318       -0.8252846377       -1.3962328204
 C          5.6017527385        0.3673982060       -0.8948428062
 H          5.9589026363        1.3260373536       -1.2348008583
 H          6.8562395618       -0.8119202684       -2.1610642517
 H          5.9881887354       -2.9595952726       -1.3101061461
 H          4.2589365734       -2.9913442869        0.4473773663
 H          3.3910706947       -0.8361292433        1.3559059844
 H          3.2183119541        2.7485373255       -1.2745831240
 H          2.2941695115        1.5158066976       -3.0291391404
 H          0.7480432955       -0.2759975097       -3.7281761693
 H         -0.4951737038       -1.5718036158       -2.0447300374
 C         -0.4135016342       -1.2934451392        0.6800438098
 H          0.0157780352       -1.0233837823        1.6546430506
 C         -0.2996810236       -2.7947269291        0.5066990445
 C          0.9617192983       -3.4800197647        0.9337594036
 C         -0.2984479354       -3.6693103746        1.7225983201
 H         -0.8043372122       -4.6217806351        1.6723006011
 H         -0.3757233722       -3.1859592921        2.6862891129
 H          1.7374457100       -2.8673346667        1.3676967497
 H          1.3258901699       -4.3048109870        0.3411649589
 H         -0.8095315789       -3.1714337046       -0.3692370825
 O         -2.6075229961       -1.9938662034       -1.1826238284
