  62
        -98.93832514
 C         -1.9720698321       -0.9447007822        0.1610097339
 C         -2.4027612308        0.3053694059       -0.3395936269
 C         -3.7588390436        0.7379184572        0.0500296793
 C         -4.5039548909       -0.0484683282        0.8484859717
 C         -5.8859720170        0.1478642187        1.4362399408
 C         -6.8151834205        1.2361867084        0.9051966282
 C         -7.3108009454        1.0132701597       -0.5232202703
 H         -7.9934793008        0.1597653158       -0.5247623080
 H         -7.8797632658        1.8941897081       -0.8285324686
 C         -6.2265406262        0.7371963939       -1.5618031416
 H         -5.7165840794       -0.1975384128       -1.3201277373
 H         -6.7181353970        0.5948972335       -2.5280661275
 C         -5.1848444334        1.8417067497       -1.7292014428
 H         -5.6844075456        2.7907466465       -1.9334623211
 H         -4.5761980288        1.5901491436       -2.6019598362
 C         -4.2284632467        2.0366149797       -0.5397049843
 H         -3.3333319039        2.5480092576       -0.9059911529
 H         -4.6724864024        2.6680766518        0.2261558085
 H         -6.3457270932        2.2111242091        0.9980914900
 H         -7.6907538378        1.2436981712        1.5601673606
 H         -5.7305126529        0.3187748461        2.5073002103
 H         -6.3858384334       -0.8221569612        1.3496365632
 O         -4.0345466521       -1.2397234861        1.3233684723
 C         -2.7770578252       -1.7134130382        1.0021283243
 O         -2.4960063213       -2.8143800234        1.5160320141
 O         -1.6981102551        1.0397115397       -1.0808088010
 C         -0.5908674868       -1.4909910924       -0.1622775958
 C          0.4407748958       -0.6138054357        0.5032698233
 C          0.6482912272       -0.7387837813        1.8742198522
 C          1.5707534144        0.0577857778        2.5260848318
 C          2.3054473133        0.9978406557        1.8241172924
 C          2.0991290021        1.1344642797        0.4586164233
 C          1.1793324431        0.3266005380       -0.1968490586
 H          1.0225395388        0.4531682433       -1.2560460823
 N          2.8619123163        2.0764948465       -0.2608911082
 S          4.5238228139        1.8892027628       -0.1520438412
 O          4.9912766451        2.4512243325        1.0900793208
 O          5.0629295917        2.4786934097       -1.3571689425
 C          4.7611053046        0.1207268650       -0.1484905076
 C          4.4768592774       -0.5737266689       -1.3077437787
 C          4.5763822177       -1.9551069640       -1.3035442388
 C          4.9501942857       -2.6157857900       -0.1431978452
 C          5.2346976243       -1.9042128669        1.0117032750
 C          5.1367872080       -0.5218830172        1.0131616070
 H          5.3463107422        0.0689898053        1.8895834528
 H          5.5259781963       -2.4212164456        1.9117760481
 H          5.0203454548       -3.6921776479       -0.1403528220
 H          4.3565690351       -2.5115149762       -2.2005984468
 H          4.1945527635       -0.0270554464       -2.1931406799
 H          2.5763065214        2.1659218315       -1.2254641276
 H          3.0326733796        1.6274063471        2.3110306130
 H          1.7210614374       -0.0530761218        3.5891817522
 H          0.0684681825       -1.4689454600        2.4221086750
 H         -0.5447498787       -2.4812989588        0.3101671891
 C         -0.3818388401       -1.6515771366       -1.6538024441
 C          0.7914720858       -2.4439084147       -2.1457402481
 C         -0.5960044717       -2.9931969804       -2.2838176065
 H         -1.0399324823       -3.0347290759       -3.2673098102
 H         -0.8922948616       -3.8067414830       -1.6379192440
 H          1.3011159348       -2.1108162000       -3.0369816674
 H          1.4409692258       -2.8810389034       -1.4025160609
 H         -0.6849967057       -0.7826451812       -2.2247971738
