  62
        -98.94965472
 C          1.6797214651        1.2310566839        0.3422959239
 C          1.3327326953        0.1594997027       -0.5133379892
 C          1.9278270383       -1.1393252707       -0.1863219300
 C          2.7133387758       -1.2585497692        0.8990231799
 C          3.3652957003       -2.5244603083        1.3854183126
 C          4.6890183861       -2.8584868643        0.6833705445
 C          4.5566168482       -3.3534226174       -0.7574917423
 H          5.5293357872       -3.7555878786       -1.0477369930
 H          3.8403566844       -4.1748685018       -0.7921926247
 C          4.1494699600       -2.2692259633       -1.7648810478
 H          4.3181630876       -1.2833645419       -1.3256796629
 H          4.7844525898       -2.3393018418       -2.6507607006
 C          2.6986687193       -2.3572759396       -2.2383473361
 H          2.5493977409       -3.2869533399       -2.7916648222
 H          2.5093899271       -1.5238587248       -2.9192044885
 C          1.6624236883       -2.2903971563       -1.1086357604
 H          0.6745317545       -2.1396361101       -1.5511196600
 H          1.6485142042       -3.2261425053       -0.5496217800
 H          5.3290055039       -1.9733967753        0.7082698042
 H          5.1789145154       -3.6392572862        1.2697479936
 H          3.5649887959       -2.3804215078        2.4497400877
 H          2.6688031380       -3.3567084764        1.2762938924
 O          2.9990546765       -0.2099545007        1.7170778336
 C          2.4921656697        1.0537436592        1.4599281826
 O          2.8309867149        1.9241354334        2.2899074602
 H         -0.4902338443        1.1263088040        1.6454486683
 C         -1.0610652944        1.6982505962        0.9279436643
 C         -0.4070671288        2.5324504985        0.0302291711
 C         -1.1720060300        3.2627327626       -0.8712833725
 C         -2.5504348098        3.1363238551       -0.8875206752
 C         -3.1919843051        2.2655661919       -0.0257023957
 C         -2.4359323906        1.5383098133        0.8858798893
 N         -3.0334372215        0.6153718581        1.7716533558
 S         -2.6241044345       -0.9973735374        1.5544334193
 O         -3.4322049289       -1.7205071516        2.5138599494
 O         -1.1983645725       -1.1657351505        1.6652927155
 C         -3.1960772922       -1.3692527676       -0.0946303765
 C         -2.4397460403       -0.9797022707       -1.1817440879
 C         -2.9426343996       -1.2032014667       -2.4550390479
 C         -4.1814651283       -1.8025857213       -2.6195255258
 C         -4.9283504426       -2.1870818413       -1.5158154604
 C         -4.4352234102       -1.9641693610       -0.2407975778
 H         -4.9777143324       -2.2473471476        0.6469000595
 H         -5.8912998365       -2.6546237692       -1.6445414507
 H         -4.5658813584       -1.9706975888       -3.6132282760
 H         -2.3553450923       -0.8999444919       -3.3070379793
 H         -1.4756933092       -0.5165830524       -1.0354769963
 H         -4.0411835409        0.6916948907        1.8139214640
 H         -4.2645168819        2.1456107554       -0.0561209003
 H         -3.1307054172        3.7090611061       -1.5945651532
 H         -0.6867858731        3.9279269362       -1.5667452646
 C          1.0996976564        2.6105803251        0.0903759866
 H          1.3799539437        3.2243998012        0.9595100184
 C          1.7161965752        3.2152477593       -1.1554240952
 C          1.9195994039        4.6961058459       -1.2616822189
 C          3.0971780055        3.7897476113       -1.0694745577
 H          3.7734823533        3.6354482223       -1.8968353772
 H          3.5795082453        3.7706158866       -0.1026149325
 H          1.7913965349        5.1668343219       -2.2247571175
 H          1.6105973312        5.3054611444       -0.4258368625
 H          1.4579507078        2.6658280091       -2.0535238780
 O          0.5601254214        0.2828826026       -1.5002599148
