  62
        -98.94527273
 C         -1.7953284108       -0.3568923513        0.8354761100
 C         -2.0536276665        0.1965372320       -0.4441097917
 C         -2.0040393594        1.6656234998       -0.5305795492
 C         -1.6724607403        2.3841940826        0.5558095250
 C         -1.5737012863        3.8813435768        0.6065165051
 C         -0.1543112649        4.3755022296        0.2989444276
 C          0.4509288478        3.7834783345       -0.9740050848
 H          1.4265765168        4.2535470670       -1.1206308717
 H          0.6346125367        2.7153540983       -0.8386118497
 C         -0.4018216622        3.9707602767       -2.2359575476
 H         -1.1270898178        4.7720921488       -2.0851550788
 H          0.2534281088        4.2735855389       -3.0555034274
 C         -1.1243823599        2.7007146840       -2.6909832743
 H         -0.4162160406        1.8675047499       -2.6986920025
 H         -1.4691246360        2.8519066308       -3.7179574798
 C         -2.3432459175        2.2901699718       -1.8541589998
 H         -3.0035207257        3.1503991125       -1.7175263149
 H         -2.8870801630        1.5245498968       -2.4156338629
 H         -0.1827954569        5.4637536990        0.2140361431
 H          0.4954121386        4.1185305941        1.1389690532
 H         -2.2776297917        4.3064342583       -0.1065970221
 H         -1.8495896188        4.2058789279        1.6118186962
 O         -1.3627249338        1.8149256824        1.7496718149
 C         -1.4048422016        0.4385802283        1.9144061287
 O         -1.0724978226        0.0531108261        3.0530790089
 H          0.6784719559       -1.2324892871        0.4452088442
 C          0.3236081364       -2.0287660745       -0.1926688836
 C         -0.9639664888       -2.5164554805       -0.0066942271
 C         -1.4068226376       -3.5491037870       -0.8208953009
 C         -0.5823640993       -4.0545577767       -1.8120665549
 C          0.6790880911       -3.5302864720       -2.0262699636
 C          1.1322244171       -2.4981919587       -1.2119424291
 N          2.4010103101       -1.9238509697       -1.3889951587
 S          2.5769800799       -0.2700299760       -1.1748802735
 O          1.3772150452        0.4527648646       -1.5189418155
 O          3.7623600068        0.0634978820       -1.9379659243
 C          2.9500955132       -0.0907336291        0.5562439051
 C          2.1799927123        0.7389036261        1.3458045508
 C          2.4875384764        0.8666876292        2.6906094891
 C          3.5627365295        0.1690433758        3.2186628828
 C          4.3337777790       -0.6542443137        2.4113613239
 C          4.0267442117       -0.7884438296        1.0671131153
 H          4.6004834091       -1.4167109230        0.4065165386
 H          5.1693408296       -1.1935735361        2.8275540451
 H          3.7970817707        0.2684867643        4.2667302715
 H          1.8739204264        1.4954908685        3.3162153920
 H          1.3427754389        1.2577236555        0.9036640741
 H          2.9061225819       -2.2510188234       -2.1998193158
 H          1.3054872584       -3.9055972376       -2.8213568737
 H         -0.9377884754       -4.8544393327       -2.4441351071
 H         -2.4040046516       -3.9396232724       -0.7009573101
 C         -1.7877673787       -1.8594250703        1.0731301726
 H         -1.2482116836       -1.9872845303        2.0267421802
 C         -3.1595529152       -2.4859496778        1.2689736959
 C         -4.3172018783       -1.6713956037        1.7624278246
 C         -4.3164874727       -2.2004341455        0.3611617724
 H         -4.9896981548       -3.0108512125        0.1216186226
 H         -4.1537363057       -1.5117453354       -0.4520302232
 H         -4.1564057207       -0.6128277258        1.9085956624
 H         -4.9875455778       -2.1155544234        2.4829867380
 H         -3.0874581912       -3.4968461321        1.6587144352
 O         -2.3366754459       -0.4856050380       -1.4621820597
