  62
        -98.94339218
 C         -1.9748862369       -0.8928210793       -0.4882717010
 C         -0.9023256358       -1.3236268399       -1.3031056533
 C         -0.1125871146       -2.4538743199       -0.7991047258
 C         -0.4469386579       -3.0132402696        0.3773494041
 C          0.3258647419       -4.0941919468        1.0777989989
 C          1.5418264716       -3.4740860826        1.7971811065
 C          2.8975960305       -3.9137787088        1.2420283026
 H          3.6514481798       -3.2511261075        1.6732962968
 H          3.1111431104       -4.9284092023        1.5864066630
 C          3.0326736848       -3.8963058441       -0.2838022994
 H          4.0994427937       -3.9554338332       -0.5097881880
 H          2.5744026522       -4.7939977469       -0.7020895753
 C          2.4456423511       -2.6664408106       -0.9884445139
 H          3.1273943432       -2.3713392906       -1.7890830336
 H          2.3836665099       -1.8267556442       -0.2938309558
 C          1.0612862926       -2.9003270764       -1.6255963491
 H          0.9947861678       -2.3223588099       -2.5521911538
 H          0.9486292722       -3.9558040163       -1.8876149268
 H          1.4583326213       -2.3856628980        1.7395981529
 H          1.5077198220       -3.7319333202        2.8573701415
 H         -0.3449321624       -4.5592999273        1.8008225648
 H          0.6453714855       -4.8475641509        0.3610474179
 O         -1.5040022978       -2.5945337776        1.1184806250
 C         -2.2590515229       -1.4957312514        0.7363774299
 O         -3.1450069059       -1.1773417476        1.5533338540
 O         -0.6041516338       -0.7713966567       -2.3984541292
 C         -2.7288718587        0.3699202175       -0.8771860653
 C         -2.3672964962        1.4254304597        0.1405180757
 C         -3.2854560033        2.1239811530        0.9106141145
 C         -2.8452501821        2.9871279881        1.9009772746
 C         -1.4968239508        3.1490606013        2.1583758033
 C         -0.5680327854        2.4662564903        1.3777609900
 C         -1.0119218638        1.6499950071        0.3536196126
 H         -0.2928035915        1.1248182668       -0.2538881345
 N          0.8069256345        2.5998830443        1.6071273599
 S          1.9073372660        1.3915375376        1.2373462406
 O          1.3148529643        0.0752417082        1.2505788459
 O          2.9901816615        1.6076117994        2.1754746938
 C          2.4763739825        1.8477194330       -0.3872628952
 C          3.2673119138        2.9783296406       -0.4741671052
 C          3.7250551187        3.3870998888       -1.7151365203
 C          3.3858187743        2.6618340180       -2.8480760543
 C          2.5946645646        1.5291818714       -2.7448691636
 C          2.1340584166        1.1145325863       -1.5041834607
 H          1.5111690124        0.2391588108       -1.4082484124
 H          2.3210180013        0.9617589784       -3.6200961929
 H          3.7400923220        2.9791289759       -3.8161704048
 H          4.3424486396        4.2670969656       -1.7967488400
 H          3.5162314531        3.5041105361        0.4325504675
 H          1.0563873137        3.0957344729        2.4493446923
 H         -1.1613180347        3.7903361077        2.9592041349
 H         -3.5666507895        3.5213901307        2.5007907822
 H         -4.3415474501        1.9784019028        0.7538919925
 H         -2.3195692774        0.6695759461       -1.8528529872
 C         -4.2138365118        0.1257511172       -1.0191270238
 C         -5.0418034445        1.0364494092       -1.8746517564
 C         -4.7489457733       -0.3600196866       -2.3317317978
 H         -5.5481513857       -1.0857813954       -2.3242520668
 H         -4.0414839557       -0.4986847767       -3.1360978170
 H         -6.0462852418        1.2705699724       -1.5562785065
 H         -4.5357785783        1.8491501712       -2.3732112793
 H         -4.6594088635       -0.2785572777       -0.1177305223
