  62
        -98.94419841
 C         -1.8824476526       -1.3529954935        0.5910594913
 C         -2.6430158921       -0.8143122714       -0.4762981085
 C         -3.2940556242        0.4751268732       -0.2048694327
 C         -3.1180351030        1.0843866967        0.9807073974
 C         -3.7043538603        2.4057911813        1.3966148545
 C         -2.8933806859        3.6172626491        0.9161689701
 C         -3.0029109031        3.9211743670       -0.5788268059
 H         -4.0550498753        3.9715500619       -0.8608525346
 H         -2.5790599276        4.9151304318       -0.7362224240
 C         -2.2714896070        2.9219954677       -1.4866614568
 H         -1.5547826914        2.3461488240       -0.8967721702
 H         -1.7025245061        3.4674076780       -2.2425186013
 C         -3.1870246588        1.9494692511       -2.2294043309
 H         -2.5610150573        1.2671176361       -2.8096764945
 H         -3.8232331668        2.4997955104       -2.9262197167
 C         -4.0822581685        1.1050849241       -1.3138549771
 H         -4.8883641090        1.7153115977       -0.9071687921
 H         -4.5191281609        0.3003275775       -1.9101312408
 H         -1.8460068166        3.4588751672        1.1822328127
 H         -3.2513553689        4.4887793559        1.4690995836
 H         -3.7188660678        2.4104638682        2.4886110086
 H         -4.7302666927        2.4840506280        1.0360441813
 O         -2.3620738954        0.5435623281        1.9734305662
 C         -1.7176489023       -0.6667180128        1.7973346066
 O         -1.0346708720       -1.0279265509        2.7786282840
 O         -2.7867609903       -1.3620195281       -1.5991273106
 C         -1.1101717157       -2.6588249007        0.4629646818
 C          0.1706215174       -2.3416623621       -0.2708351557
 C          0.2766745533       -2.3736537755       -1.6560034158
 C          1.4574068287       -1.9979555119       -2.2731026257
 C          2.5504304761       -1.5870213200       -1.5304373870
 C          2.4500576031       -1.5431133945       -0.1455513359
 C          1.2662173344       -1.9196459726        0.4718922333
 H          1.1802877497       -1.8685123686        1.5494918888
 N          3.5521380799       -1.1380895798        0.6314656582
 S          4.3367035576        0.2888542211        0.2552224782
 O          5.0486965751        0.1272577607       -0.9870967841
 O          5.1399447031        0.5928049441        1.4171666693
 C          3.0544439120        1.5131471860        0.0648021153
 C          2.5993924512        1.8417924325       -1.1960567358
 C          1.5948076895        2.7881868053       -1.3184367009
 C          1.0659220820        3.3865838616       -0.1853019366
 C          1.5270860413        3.0381115187        1.0748912594
 C          2.5284689902        2.0897079089        1.2037924638
 H          2.9222575128        1.8037945515        2.1661159312
 H          1.1118591174        3.5010337785        1.9561902331
 H          0.2921399112        4.1313676105       -0.2851745887
 H          1.2288050157        3.0574909111       -2.2960452438
 H          3.0455966121        1.3656882728       -2.0533832289
 H          3.3753062132       -1.1826634425        1.6247884638
 H          3.4765206041       -1.2978700608       -2.0001899508
 H          1.5290336382       -2.0269390321       -3.3498497633
 H         -0.5753350033       -2.6687041012       -2.2465022827
 H         -0.8427786978       -2.9499822802        1.4877784757
 C         -1.9096321010       -3.7820654938       -0.1600111220
 C         -1.3976383492       -5.1847189823       -0.0366917014
 C         -2.6116929243       -4.7594996568        0.7319384772
 H         -3.5759182485       -5.1356997867        0.4246705483
 H         -2.5180051442       -4.6230054809        1.7997880132
 H         -1.5257477957       -5.8560865049       -0.8717397155
 H         -0.4783338286       -5.3340929990        0.5098087757
 H         -2.4117363997       -3.5052339378       -1.0768170799
