  62
        -98.93903212
 C         -2.3256542938       -0.8072733254        0.6270009074
 C         -3.4305757905       -0.9727710258       -0.2441160358
 C         -4.6120756822       -0.1466836784        0.0511873024
 C         -4.5931540554        0.6916272324        1.1021464906
 C         -5.7047748316        1.6270027583        1.4782599929
 C         -5.5284656026        2.9981985921        0.8109254641
 C         -5.2497490861        2.9234803005       -0.6903361913
 H         -5.1748904198        3.9491422568       -1.0581119824
 H         -4.2758890742        2.4541306621       -0.8487988141
 C         -6.3145259507        2.1671955644       -1.4970423965
 H         -7.2342330484        2.0907256262       -0.9159956684
 H         -6.5457781215        2.7421570241       -2.3961620448
 C         -5.8887635299        0.7719614547       -1.9576887395
 H         -4.9187631193        0.8314528399       -2.4576069937
 H         -6.6161484028        0.4206797544       -2.6943142338
 C         -5.7993327046       -0.2945492485       -0.8589319531
 H         -5.6827030862       -1.2660060644       -1.3477301036
 H         -6.7263525656       -0.3087092953       -0.2825695271
 H         -4.6904098706        3.5104449706        1.2893514392
 H         -6.4313024444        3.5858683145        0.9868670814
 H         -6.6563158607        1.1879533719        1.1848752727
 H         -5.6926085839        1.7557252586        2.5618799655
 O         -3.5214893711        0.8139597964        1.9268775789
 C         -2.3703974852        0.0791340659        1.7081581236
 O         -1.4668223275        0.2926672388        2.5429089566
 O         -3.4572980592       -1.7641408185       -1.2233510572
 C         -1.0200653866       -1.5710262672        0.4716487663
 C         -0.1442547604       -0.9689941636       -0.6018780693
 C         -0.5068156884       -0.9992369164       -1.9447263531
 C          0.3332756634       -0.4689887550       -2.9064764054
 C          1.5532131322        0.0809409266       -2.5545426615
 C          1.9194773260        0.1260105060       -1.2143346905
 C          1.0662642858       -0.3901748220       -0.2490509705
 H          1.3582241673       -0.3394894745        0.7902037331
 N          3.1393536853        0.7012360268       -0.8243710943
 S          3.9408150840        0.0625613320        0.5165689325
 O          3.8995886268       -1.3820194262        0.4778127444
 O          3.4232231341        0.6854934114        1.7091550785
 C          5.5996402903        0.6407242064        0.2102075338
 C          5.9119844813        1.9514230351        0.5191943592
 C          7.1924030810        2.4135746098        0.2598297424
 C          8.1339753672        1.5625767561       -0.3002131670
 C          7.8065595971        0.2493943393       -0.6024458369
 C          6.5270410291       -0.2189325401       -0.3474125303
 H          6.2290004982       -1.2334293728       -0.5580506562
 H          8.5417464125       -0.4106377264       -1.0338414678
 H          9.1302334411        1.9246414617       -0.4991485498
 H          7.4514206971        3.4329748759        0.4964512911
 H          5.1506242680        2.5715752434        0.9632362310
 H          3.7662854951        0.8625181849       -1.6007396622
 H          2.2141739408        0.4799429639       -3.3090285585
 H          0.0406581968       -0.4967367431       -3.9453432695
 H         -1.4549811392       -1.4328769795       -2.2220817540
 H         -0.4921554811       -1.4491592799        1.4279799348
 C         -1.2160495196       -3.0552495982        0.2241982831
 C         -0.0571268902       -3.9770610190        0.4508287470
 C         -1.2272659607       -3.9978171958        1.3874135168
 H         -1.8966866865       -4.8444364935        1.3580367261
 H         -1.0982363269       -3.5764666973        2.3742570464
 H          0.0771937479       -4.8105063673       -0.2215493976
 H          0.8685618284       -3.5399975177        0.7976999177
 H         -1.8812773140       -3.2718394311       -0.6008163847
