  62
        -98.93864512
 C         -2.0970995121       -0.9904291261       -0.4258918352
 C         -3.1430040711       -1.2780360143        0.4830602814
 C         -4.4257899241       -0.5927174383        0.2507053145
 C         -4.5306949436        0.2591415941       -0.7840179782
 C         -5.7190021756        1.0998657609       -1.1613197014
 C         -5.6175026959        2.4988675783       -0.5299656946
 C         -6.1977207717        2.6140063041        0.8791461359
 H         -5.9459663179        3.6090607795        1.2533654044
 H         -7.2865901716        2.5505445116        0.8248586962
 C         -5.6961942956        1.5707356242        1.8809853118
 H         -4.6183060165        1.4406635107        1.7673591481
 H         -5.8698206981        1.9614122519        2.8855541738
 C         -6.4047222843        0.2146813968        1.7459124868
 H         -7.2814775523        0.3327878041        1.1094561916
 H         -6.7733362503       -0.0994884571        2.7246214076
 C         -5.5306574387       -0.9306466261        1.2144079689
 H         -5.0254159482       -1.4207220560        2.0525672536
 H         -6.1752722090       -1.6869164261        0.7541032628
 H         -4.5626209383        2.7857064151       -0.5187972641
 H         -6.1419832040        3.2110492537       -1.1703117847
 H         -5.6918992120        1.2064458747       -2.2478095140
 H         -6.6454001642        0.6076764641       -0.8807020123
 O         -3.4961794957        0.5143375145       -1.6309257592
 C         -2.2598584377       -0.0908356701       -1.4788974666
 O         -1.4191110672        0.2462405132       -2.3341036025
 H          1.2269878309       -0.4683471899       -1.7134298847
 C          1.1876104990       -0.1029320209       -0.6997527826
 C          0.2515323692       -0.6148286666        0.1846543619
 C          0.2139715938       -0.1095127397        1.4819440994
 C          1.0813670853        0.8908972819        1.8773042072
 C          2.0041918527        1.4117460437        0.9867482851
 C          2.0503944061        0.9135177993       -0.3082335606
 N          2.9825132403        1.4387654723       -1.2171328830
 S          4.5543645667        1.6722074950       -0.7010701823
 O          4.6438781868        2.8953098717        0.0575129941
 O          5.3608135178        1.6127775314       -1.8998083744
 C          4.9040639540        0.2784558149        0.3568150102
 C          4.8710841872       -0.9838422196       -0.2023259459
 C          5.1048719642       -2.0823965019        0.6082114991
 C          5.3636832266       -1.9011924718        1.9584531649
 C          5.3971741820       -0.6275049165        2.5038968528
 C          5.1637073751        0.4752155583        1.6975481063
 H          5.1802317248        1.4824058774        2.0808135115
 H          5.6007075727       -0.4895878835        3.5535853346
 H          5.5414487632       -2.7587637284        2.5879992393
 H          5.0810992606       -3.0741475888        0.1858980788
 H          4.6731807380       -1.0890310241       -1.2568818281
 H          2.9423419042        1.0249202804       -2.1361918340
 H          2.6760641009        2.2056913009        1.2697902050
 H          1.0377501407        1.2737716763        2.8855573136
 H         -0.5161864312       -0.5068660469        2.1732362671
 C         -0.7525676941       -1.6669837035       -0.2147869662
 H         -0.8995914181       -2.3398076779        0.6408935421
 C         -0.3431697793       -2.4905608913       -1.4170014819
 C          0.7298105810       -3.5262496409       -1.2678696704
 C         -0.6960363405       -3.9459532569       -1.4586682036
 H         -0.9865199646       -4.3773760228       -2.4049515060
 H         -1.2277466778       -4.3551652577       -0.6122679511
 H          1.4215899079       -3.6750618808       -2.0828611188
 H          1.1661411397       -3.6502051995       -0.2885405942
 H         -0.3995739013       -1.9435837478       -2.3505673210
 O         -3.0095231299       -2.0722080064        1.4526541529
