  62
        -98.93989886
 C         -2.6348845902       -0.2106753273        0.5609768094
 C         -2.1806064531        0.2399503507       -0.7046675954
 C         -2.0039358413        1.6938685313       -0.8445000615
 C         -2.2510035204        2.4968618945        0.2048172028
 C         -2.1134089256        3.9914506179        0.1985139024
 C         -0.7214692554        4.4416104935        0.6595884274
 C          0.4337691438        3.7290711456       -0.0445724251
 H          1.3594489013        4.1836888459        0.3166236251
 H          0.4588145624        2.6795292175        0.2574572326
 C          0.3972003240        3.8072578476       -1.5768092138
 H          1.4058996523        4.0203822560       -1.9372112981
 H         -0.2436751794        4.6318145070       -1.8936831644
 C         -0.0539735018        2.5178950940       -2.2671557844
 H          0.2030293738        2.5915410677       -3.3279404910
 H          0.5009252894        1.6679667999       -1.8577529555
 C         -1.5539979153        2.2058330368       -2.1831408850
 H         -2.1303909190        3.0874739675       -2.4742183897
 H         -1.7652598070        1.4038731142       -2.8968972902
 H         -0.6396452609        5.5179807489        0.4945224401
 H         -0.6338932647        4.2537563853        1.7321905156
 H         -2.8604899846        4.4039596184        0.8794369563
 H         -2.3099040960        4.3598184855       -0.8066897947
 O         -2.6447468973        2.0257644876        1.4164557818
 C         -2.8118799035        0.6679036696        1.6312994362
 O         -3.1186337859        0.3707649219        2.8047412115
 O         -1.9521094571       -0.5199192225       -1.6808998821
 C         -2.8117583350       -1.6922091219        0.8620691026
 C         -1.5991348553       -2.4247614774        0.3445176978
 C         -1.6319805320       -3.4457959246       -0.5951473933
 C         -0.4552432556       -3.9878334939       -1.0841510977
 C          0.7748588843       -3.5195806854       -0.6573709066
 C          0.8137794709       -2.5199062617        0.3017467462
 C         -0.3615156793       -1.9957147222        0.8077025553
 H         -0.3187688917       -1.1921485950        1.5347877485
 N          2.0755362741       -1.9748287286        0.7004307638
 S          2.3072967061       -0.4882368623       -0.0834714408
 O          1.5349223769        0.5476846778        0.5711309572
 O          2.0792494787       -0.6835974093       -1.4914792938
 C          4.0462708430       -0.2199190213        0.2072779861
 C          4.9378654285       -1.0994938145       -0.3762206522
 C          6.2932035732       -0.9323702586       -0.1437409148
 C          6.7321216709        0.1064711073        0.6643226055
 C          5.8253618685        0.9816855167        1.2417038373
 C          4.4672539374        0.8179896799        1.0144190678
 H          3.7254132775        1.4741193257        1.4412401455
 H          6.1685567728        1.7891742906        1.8682939855
 H          7.7877104657        0.2353637454        0.8443735698
 H          7.0016809899       -1.6106159875       -0.5912151268
 H          4.5485490851       -1.8864098785       -1.0003121281
 H          2.0840830824       -1.7757096949        1.6939312308
 H          1.6965033719       -3.9023501804       -1.0638324968
 H         -0.4986222090       -4.7682622670       -1.8286521964
 H         -2.5796534370       -3.7886306357       -0.9776988174
 H         -2.8045557529       -1.7588803050        1.9631341888
 C         -4.1332323907       -2.2858021711        0.4013543047
 C         -5.3623936842       -1.4337681124        0.3002055019
 C         -4.7287327181       -1.9853475603       -0.9397638146
 H         -5.2383175620       -2.7822465031       -1.4615239649
 H         -4.1873668769       -1.3147396883       -1.5875010888
 H         -6.3030523197       -1.8492191570        0.6290345084
 H         -5.2546163589       -0.3781515199        0.5047314195
 H         -4.2776294999       -3.2913429535        0.7846345606
