  62
        -98.93588905
 C         -2.3727614752       -0.7314404779        0.2353229298
 C         -2.4900006897        0.6824523637        0.2654444962
 C         -3.7060162711        1.2502360082       -0.3257063651
 C         -4.6222268427        0.4320421398       -0.8739713988
 C         -5.9025495479        0.8537738557       -1.5427193504
 C         -7.0645836662        1.0987238519       -0.5705120366
 C         -6.9517221500        2.3708602522        0.2704114633
 H         -6.7618870830        3.2221385860       -0.3839697916
 H         -7.9236647295        2.5314399148        0.7410619750
 C         -5.8776241947        2.3124218011        1.3656465661
 H         -6.2907676108        2.6929941602        2.3024784013
 H         -5.5915157942        1.2728039796        1.5413132471
 C         -4.6185488798        3.1254584207        1.0637460982
 H         -4.8697627772        4.1874387244        1.0163632885
 H         -3.9122280179        2.9832212462        1.8859010611
 C         -3.9100043197        2.7327080506       -0.2393930393
 H         -2.9240413602        3.2043501746       -0.2504511745
 H         -4.4779089113        3.0889859595       -1.0988100357
 H         -7.9786003941        1.1622426067       -1.1653389520
 H         -7.1563707138        0.2328208408        0.0890508927
 H         -5.7264301533        1.7520599684       -2.1351149008
 H         -6.1826316254        0.0410456053       -2.2162008790
 O         -4.4690494915       -0.9163507933       -0.8990405647
 C         -3.3563422049       -1.5377634505       -0.3402305352
 O         -3.3847365723       -2.7776489190       -0.4341655699
 O         -1.6151194170        1.4371795150        0.7721370466
 C         -1.1220094510       -1.3217099030        0.8607096929
 C         -0.0323831830       -1.5068904533       -0.1651581958
 C         -0.2747729985       -2.1620620414       -1.3688366260
 C          0.7404055019       -2.3220671062       -2.2938455540
 C          2.0090303881       -1.8312232678       -2.0407248165
 C          2.2639904599       -1.1799323962       -0.8391475993
 C          1.2427290919       -1.0223046144        0.0882610861
 H          1.4466673488       -0.4950826382        1.0080529429
 N          3.5577602428       -0.7173566475       -0.5437461608
 S          3.7471618893        0.7163029215        0.3292369593
 O          3.4798048207        0.4502715803        1.7199199821
 O          2.9858599839        1.7793598990       -0.2872576099
 C          5.4939996236        0.9887781708        0.0974810569
 C          6.3833939686        0.2614419662        0.8659689396
 C          7.7428897791        0.4467695322        0.6722755361
 C          8.1882545600        1.3508829538       -0.2808294322
 C          7.2839162844        2.0754837976       -1.0424823307
 C          5.9225384386        1.8937205475       -0.8549514970
 H          5.1825703193        2.4406425254       -1.4171341654
 H          7.6329319461        2.7803577022       -1.7798021833
 H          9.2469508035        1.4940560591       -0.4288288769
 H          8.4491325224       -0.1123500470        1.2645422547
 H          5.9908142921       -0.4219950668        1.6005773606
 H          4.1639420353       -0.7267946229       -1.3534528215
 H          2.7979753637       -1.9539991994       -2.7671900973
 H          0.5398570839       -2.8306810561       -3.2248905657
 H         -1.2638369330       -2.5464670133       -1.5671106008
 H         -0.7718175160       -0.5499679662        1.5661642686
 C         -1.3882542542       -2.5840379624        1.6701997377
 C         -0.9184746872       -3.9449708000        1.2628520349
 C         -0.2636198193       -3.2438724295        2.4124571888
 H         -0.4451993291       -3.6033260301        3.4140262875
 H          0.7290450401       -2.8464789443        2.2584755638
 H         -1.5737903351       -4.7782392923        1.4646179420
 H         -0.3667201826       -4.0397589569        0.3413487469
 H         -2.3465559429       -2.5409939914        2.1782292366
