  62
        -98.94507511
 C          2.3535529506        0.4103132109        0.0697300412
 C          1.4946044116       -0.2199559021       -0.8561680281
 C          1.4566390437       -1.6944090551       -0.8425786760
 C          2.2419285305       -2.3529269002        0.0297341164
 C          2.3880888163       -3.8391280210        0.2330604139
 C          1.2100228212       -4.4648017418        0.9911343159
 C         -0.1676987887       -4.0567699873        0.4777900175
 H         -0.9134539704       -4.5286744285        1.1242932163
 H         -0.2909253269       -2.9782785732        0.5938662939
 C         -0.4704401029       -4.4666618442       -0.9623062028
 H         -0.3319577911       -5.5456321369       -1.0636542496
 H         -1.5268981570       -4.2485771141       -1.1391652917
 C          0.3435730081       -3.7600070687       -2.0507751288
 H          1.3255209695       -4.2104440466       -2.1715694680
 H         -0.1843267450       -3.9068133824       -2.9973363494
 C          0.4820863287       -2.2551841109       -1.8492343699
 H          0.7516966910       -1.7916439732       -2.8054225707
 H         -0.4980775727       -1.8388172667       -1.5876066495
 H          1.2774737994       -4.1612520610        2.0390541765
 H          1.3124602392       -5.5512588607        0.9461162694
 H          2.5333948171       -4.3360091907       -0.7218539550
 H          3.2957847216       -3.9820758768        0.8244533354
 O          3.0594091858       -1.6998801799        0.9077455202
 C          3.1179243951       -0.3225201892        0.9733433387
 O          3.8806879446        0.1256378835        1.8560527197
 H          0.4484880875        0.9497475874        1.6551169277
 C          0.1294372956        1.8322443960        1.1196506602
 C          1.0196422340        2.4888905580        0.2797498353
 C          0.5844589904        3.6315297976       -0.3805281264
 C         -0.7164041827        4.0794022744       -0.2262036821
 C         -1.6158652868        3.3859588718        0.5629218074
 C         -1.1862763850        2.2481186093        1.2357346872
 N         -2.0648810406        1.4821715036        2.0312778263
 S         -2.3623318440       -0.0902029274        1.5264207754
 O         -3.3035533974       -0.6211036377        2.4897987806
 O         -1.1222971586       -0.8059275983        1.3838512086
 C         -3.1814808244        0.0976682630       -0.0478814305
 C         -2.4391134253        0.4140193185       -1.1681130292
 C         -3.1035782257        0.6202081711       -2.3683373087
 C         -4.4840902977        0.5124090139       -2.4280372476
 C         -5.2142049286        0.1962529946       -1.2918762515
 C         -4.5589916482       -0.0088926921       -0.0889590975
 H         -5.0821761544       -0.2599161464        0.8197021043
 H         -6.2879043464        0.1109243508       -1.3393070888
 H         -4.9926613517        0.6753287530       -3.3652109444
 H         -2.5278450964        0.8648973231       -3.2465240845
 H         -1.3637226475        0.4893740715       -1.1069061675
 H         -2.9480906778        1.9389769511        2.2154436756
 H         -2.6394849203        3.7161440207        0.6574351551
 H         -1.0399373684        4.9682040388       -0.7459905040
 H          1.2631472747        4.1680351614       -1.0233617992
 C          2.4127253021        1.9256260497        0.1342036897
 H          2.9855276463        2.1711186735        1.0410527646
 C          3.1518149821        2.4678273664       -1.0730713895
 C          3.9688112038        3.7195830875       -0.9664318613
 C          4.6477460764        2.3901913045       -1.0963655019
 H          5.1378678489        2.1468061429       -2.0270690821
 H          5.1326920114        1.9717271995       -0.2260863420
 H          3.9978159827        4.3905322234       -1.8117719985
 H          4.0061166089        4.2134365758       -0.0071829792
 H          2.6262155678        2.2738555368       -2.0011666776
 O          0.7813232118        0.4223239347       -1.6731756873
