  62
        -98.94268304
 C         -0.9421404096       -1.2825865901       -0.4068019207
 C         -1.9072663393       -1.4379148608        0.6221528495
 C         -2.8760323996       -0.3475088912        0.7851197901
 C         -2.7896588802        0.7278145291       -0.0183732096
 C         -3.7589783806        1.8732376988       -0.0246875790
 C         -4.9082531107        1.6196172687       -1.0109782488
 C         -5.5632733202        0.2465389784       -0.8618783691
 H         -6.3773859004        0.1932849184       -1.5881506889
 H         -4.8398537100       -0.5254965512       -1.1341722295
 C         -6.1103281498       -0.0462912522        0.5421070710
 H         -6.2176132400        0.8846451376        1.0998496413
 H         -7.1065617997       -0.4832540925        0.4462020411
 C         -5.2684805392       -1.0302635421        1.3564366005
 H         -5.8476544689       -1.3283104026        2.2345748305
 H         -5.0841440591       -1.9313424319        0.7659029701
 C         -3.9195554893       -0.4978125418        1.8561719303
 H         -3.5176580889       -1.2272732319        2.5653138000
 H         -4.0697730595        0.4470361080        2.3819906806
 H         -5.6601561510        2.3987959284       -0.8732669284
 H         -4.5160760310        1.7013784891       -2.0273217089
 H         -3.2256240710        2.7727050791       -0.3326419289
 H         -4.1524587104        2.0163522984        0.9795463211
 O         -1.8309623505        0.8627437097       -0.9662511898
 C         -0.8810104102       -0.1290409199       -1.1910282603
 O         -0.0787954205        0.1549560807       -2.0978844005
 O         -1.9609338888       -2.4565266310        1.3631461192
 C          0.0407173708       -2.4269721197       -0.5793709613
 C          1.2418622809       -2.2509506196        0.3142650685
 C          1.7324296515       -3.3117688597        1.0670566980
 C          2.8426270316       -3.1444226095        1.8754031178
 C          3.4848516312       -1.9214749693        1.9430715880
 C          2.9956647807       -0.8510823593        1.2018109685
 C          1.8771512605       -1.0205805394        0.3988466787
 H          1.5067076301       -0.1906699194       -0.1820214809
 N          3.5965610802        0.4100724909        1.2830200787
 S          3.5491239296        1.4734324913       -0.0051724409
 O          3.7267109695        0.7909158217       -1.2646085612
 O          4.5637835593        2.4566794415        0.3184703391
 C          1.9575122493        2.2602056907        0.1045976097
 C          1.4125875696        2.4865313301        1.3531478399
 C          0.2120076193        3.1708314797        1.4442549204
 C         -0.4126827611        3.6251143598        0.2930329507
 C          0.1443736087        3.3851194204       -0.9523863995
 C          1.3423313289        2.6952429608       -1.0511968500
 H          1.7952782087        2.4689105413       -2.0030534102
 H         -0.3507995816        3.7209980105       -1.8493034193
 H         -1.3410008113        4.1695508695        0.3691334611
 H         -0.2321482305        3.3487809093        2.4105059806
 H          1.9257918099        2.1209455200        2.2272118997
 H          4.4617125204        0.4562659910        1.8000282785
 H          4.3539693513       -1.7897928092        2.5690974479
 H          3.2151883220       -3.9748214996        2.4555848275
 H          1.2300976818       -4.2669245698        1.0244777079
 H         -0.4987761488       -3.3205509300       -0.2246946414
 C          0.4303538905       -2.6850615692       -2.0274971914
 C          1.7246599302       -2.2395781485       -2.6313412916
 C          1.4901374608       -3.6937993387       -2.3603530220
 H          1.3286264008       -4.3557504585       -3.1977666022
 H          2.0299686211       -4.1410811888       -1.5394680623
 H          1.7015956598       -1.8879277782       -3.6518049215
 H          2.4253108802       -1.6958045285       -2.0160096516
 H         -0.4341884497       -2.6552103193       -2.6839877012
