  62
        -98.93738711
 C         -2.2150273240       -0.2727739473        0.3941795404
 C         -2.9175227061        0.8669176570       -0.0754600513
 C         -4.2211808174        0.6221196487       -0.7032974387
 C         -4.6640769121       -0.6432398735       -0.8169185242
 C         -5.9956650262       -1.0395216202       -1.3841422337
 C         -7.0666371302       -1.1155887651       -0.2870105287
 C         -7.1111750750        0.1148676956        0.6190076012
 H         -7.9226968289       -0.0364845840        1.3340740343
 H         -6.1833607895        0.1688353590        1.1932457864
 C         -7.3240896524        1.4419507880       -0.1226318807
 H         -7.7177235944        1.2495713644       -1.1213061905
 H         -8.0738234913        2.0270693373        0.4141500832
 C         -6.0725598793        2.3150612927       -0.2316947484
 H         -6.3789553056        3.3077826681       -0.5723182670
 H         -5.6211456128        2.4341970254        0.7566615382
 C         -4.9913841303        1.8140664167       -1.1976839563
 H         -5.4371024842        1.6067635411       -2.1727516507
 H         -4.2567349658        2.6155609411       -1.3190656907
 H         -8.0390528601       -1.2543350331       -0.7628990428
 H         -6.8641435935       -1.9908630482        0.3344829980
 H         -6.2895461421       -0.3182339649       -2.1442111223
 H         -5.8931233903       -2.0219803681       -1.8477851065
 O         -3.9555428546       -1.7125213924       -0.3803421595
 C         -2.7160943162       -1.5659585297        0.2344168388
 O         -2.1973097982       -2.6445460924        0.5697439280
 O         -2.4700499831        2.0414501757        0.0344077001
 C         -0.8800445239       -0.0078279480        1.0647564342
 C          0.2570030049       -0.0368358811        0.0778481006
 C          0.4189907349       -1.0861525967       -0.8215167172
 C          1.5041762879       -1.1176533468       -1.6791233101
 C          2.4568697943       -0.1132122735       -1.6457458175
 C          2.2966941233        0.9417503050       -0.7596348821
 C          1.1985254184        0.9818589457        0.0856335470
 H          1.0838857394        1.8114654516        0.7705996119
 N          3.3195696984        1.9292741762       -0.6822567658
 S          4.4389400929        1.5221424106        0.5166178987
 O          3.7717562858        1.2065876393        1.7618499514
 O          5.3838850977        2.6147113573        0.5703074662
 C          5.1985579944        0.0644317625       -0.1555924410
 C          4.7498818018       -1.1756645502        0.2541657433
 C          5.3110955532       -2.3091773665       -0.3121373357
 C          6.3031136844       -2.1818829952       -1.2727198700
 C          6.7436240179       -0.9284317884       -1.6712998337
 C          6.1853040359        0.2092703767       -1.1109171551
 H          6.4959623917        1.2033215055       -1.3871927604
 H          7.5164612401       -0.8352517940       -2.4172223012
 H          6.7357456079       -3.0665735105       -1.7127263932
 H          4.9683209618       -3.2840004572       -0.0045310808
 H          3.9763329367       -1.2293349307        1.0039204776
 H          2.9542621748        2.8489809402       -0.4699827445
 H          3.3119238380       -0.1327037046       -2.3014945414
 H          1.6152099830       -1.9382310532       -2.3709827890
 H         -0.3108634973       -1.8820347736       -0.8300130076
 H         -0.9576477902        1.0258604352        1.4399475565
 C         -0.6078217783       -0.8975014786        2.2704413218
 C          0.3742817717       -2.0261950115        2.2685959127
 C          0.6838932664       -0.7712776578        3.0249482731
 H          0.6536458889       -0.7960587583        4.1040920313
 H          1.4451814850       -0.1146724891        2.6263072648
 H          0.1100367295       -2.9167777798        2.8177510794
 H          0.9224582935       -2.2242588696        1.3613092451
 H         -1.5030061430       -1.0461464074        2.8665402605
