  62
        -98.94046219
 C         -2.3612390195       -0.7579865237       -0.1365204958
 C         -3.5668309257       -1.0965790604        0.5232302861
 C         -4.7959847035       -0.5433284974       -0.0598975704
 C         -4.7125425387        0.2212084097       -1.1642786015
 C         -5.8780046514        0.8895572011       -1.8332985418
 C         -6.1001550755        2.3040935717       -1.2799573674
 C         -6.1309732883        2.3714556249        0.2468941422
 H         -5.1420112610        2.1157142885        0.6341511809
 H         -6.3248556149        3.4102272681        0.5228047896
 C         -7.1817918076        1.4637378490        0.9013732785
 H         -7.6983142602        2.0302872874        1.6790267433
 H         -7.9294330671        1.1707027425        0.1635429593
 C         -6.6110539135        0.2109179155        1.5685431221
 H         -7.3987452116       -0.2377399049        2.1796417502
 H         -5.7965555418        0.4923367848        2.2408260580
 C         -6.0958872338       -0.8766323534        0.6171940052
 H         -6.8645995692       -1.1144822517       -0.1207383110
 H         -5.9012260767       -1.7735880738        1.2124020225
 H         -7.0392092062        2.6883993333       -1.6822250728
 H         -5.2897631590        2.9451254563       -1.6345797105
 H         -5.6681817773        0.9558524867       -2.9020926539
 H         -6.7707339502        0.2852665165       -1.6846654449
 O         -3.5370592828        0.5146043424       -1.7771590706
 C         -2.3316252234        0.0442936458       -1.2770092958
 O         -1.3319434356        0.4021654081       -1.9281001714
 O         -3.6116609070       -1.8229753669        1.5527389120
 C         -1.0507795026       -1.2914002514        0.4125022792
 C         -0.1265628760       -0.1513199288        0.7613830349
 C         -0.5963398771        0.8609486609        1.5956517356
 C          0.2146911378        1.9220696798        1.9459319782
 C          1.5174820482        1.9912539287        1.4836194797
 C          1.9959538714        0.9880347719        0.6502397737
 C          1.1758202058       -0.0752738316        0.2963160443
 H          1.5755845769       -0.8379332166       -0.3503310681
 N          3.3036922524        1.0439312541        0.1429939223
 S          4.1528759938       -0.3977994056       -0.0746829668
 O          3.7866442857       -0.9773911631       -1.3421937765
 O          3.9946944312       -1.2452815474        1.0858694698
 C          5.8214928777        0.2269364263       -0.1598238624
 C          6.2754328581        0.7457627022       -1.3578533549
 C          7.5604309429        1.2608149541       -1.4205799116
 C          8.3654599252        1.2495634740       -0.2910167613
 C          7.8969316903        0.7238278782        0.9036209241
 C          6.6122785228        0.2080562130        0.9736228879
 H          6.2086297320       -0.2186124014        1.8777316435
 H          8.5263439455        0.7134022428        1.7788505799
 H          9.3654590749        1.6502340816       -0.3432808477
 H          7.9291167122        1.6673815000       -2.3484677839
 H          5.6171130658        0.7249225263       -2.2108430539
 H          3.8710446370        1.7501318079        0.5913047858
 H          2.1535612327        2.8189786692        1.7582851927
 H         -0.1660333659        2.6995308886        2.5913202121
 H         -1.6118140798        0.8017660885        1.9639885028
 H         -1.3142149304       -1.8129594239        1.3453574839
 C         -0.4423498912       -2.2932534837       -0.5453281214
 C          0.4900559951       -3.3500536981       -0.0360187057
 C         -0.8877198219       -3.7226050877       -0.4925407160
 H         -0.9958204592       -4.2634486325       -1.4206448966
 H         -1.6205618201       -3.9859700481        0.2561234508
 H          1.3353233392       -3.6277128542       -0.6484247397
 H          0.6995169098       -3.3624376546        1.0232295841
 H         -0.2414806586       -1.8677095040       -1.5229433833
