  62
        -98.94556433
 C          1.9684904188        1.5156591014       -0.1015584812
 C          1.6842645789        0.2658707112       -0.7041658709
 C          2.8083333791       -0.6803111086       -0.7634933310
 C          4.0133744591       -0.3045498183       -0.2976550914
 C          5.2279732993       -1.1851244981       -0.2526734815
 C          5.3233085598       -1.9296388678        1.0865089886
 C          4.0249743000       -2.6222297480        1.5008874390
 H          4.2194063404       -3.1396456078        2.4429506191
 H          3.2645220799       -1.8641173781        1.7022215191
 C          3.4825980499       -3.6218023383        0.4700528794
 H          4.2739360898       -3.8994463282       -0.2272228408
 H          3.1782325002       -4.5312141682        0.9924816096
 C          2.2647330196       -3.1287065586       -0.3138542004
 H          1.5064988798       -2.7570848086        0.3797773697
 H          1.8385647397       -3.9850358688       -0.8426918101
 C          2.5367725392       -2.0350440388       -1.3541324607
 H          3.3542937691       -2.3429415987       -2.0090676308
 H          1.6325391190       -1.9173713490       -1.9580757005
 H          6.1252050599       -2.6668930577        1.0156929385
 H          5.5915509799       -1.2106657776        1.8642608484
 H          5.1859235792       -1.8970900082       -1.0745398314
 H          6.1127949692       -0.5576508379       -0.3727407419
 O          4.2544997590        0.9200168618        0.2384086883
 C          3.2363641989        1.8500732117        0.3717694084
 O          3.5797376588        2.9182785618        0.9182380582
 H         -1.7921765215        2.3186462006       -0.6990958303
 C         -1.5807866411        1.8619829508        0.2549244897
 C         -0.2988484610        1.9075435311        0.7768082194
 C         -0.0629684006        1.3091330614        2.0121141594
 C         -1.0791838403        0.6711293013        2.6962956198
 C         -2.3554266904        0.6128506610        2.1631605001
 C         -2.6020058508        1.2108815807        0.9357743401
 N         -3.8953083610        1.1512459904        0.3815812004
 S         -4.5998921607       -0.3612464998        0.2284314909
 O         -5.6579428010       -0.1839823402       -0.7411431289
 O         -5.0072817403       -0.8292911996        1.5296573711
 C         -3.3235960807       -1.4145038297       -0.4332143193
 C         -2.6360624003       -2.2696713094        0.4026317107
 C         -1.6220422803       -3.0498148993       -0.1283366694
 C         -1.3127240407       -2.9580347895       -1.4755364295
 C         -2.0102725811       -2.0913730598       -2.3011044595
 C         -3.0239070811       -1.3082630299       -1.7764043694
 H         -3.5951085414       -0.6293426701       -2.3894794993
 H         -1.7616984314       -2.0188048399       -3.3477209896
 H         -0.5213842907       -3.5653790194       -1.8854964096
 H         -1.0738298400       -3.7240195291        0.5104638006
 H         -2.9097479201       -2.3151466293        1.4441128008
 H         -3.9780913113        1.6561331402       -0.4895109996
 H         -3.1590888602        0.1095476409        2.6756841104
 H         -0.8775165999        0.2102442015        3.6516870198
 H          0.9372028895        1.3434749116        2.4236342591
 C          0.8601772487        2.5428851112        0.0492814889
 H          1.2675949887        3.3468072314        0.6787309687
 C          0.4980399282        3.1188334509       -1.3036239011
 C         -0.1145485620        4.4829124408       -1.4040767712
 C          1.3016623879        4.2624837509       -1.8420090415
 H          1.5254479176        4.2838508008       -2.8980842515
 H          2.0985577180        4.6441947512       -1.2204355718
 H         -0.8617115123        4.6606298505       -2.1631500010
 H         -0.2826371819        5.0248305009       -0.4856580912
 H          0.1796162682        2.3592251107       -2.0086926808
 O          0.5566368989       -0.0437499691       -1.1667410305
