  62
        -98.94148242
 C         -2.3949509717       -1.1677747569        0.2371856735
 C         -1.9588467779       -0.2431108535       -0.7437673842
 C         -2.6533971416        1.0528335113       -0.7473779306
 C         -3.6305441173        1.2993267999        0.1426222680
 C         -4.4372774866        2.5653181552        0.2461661602
 C         -3.7569775487        3.6720052933        1.0640397703
 C         -2.5618929767        4.3435390111        0.3858045304
 H         -2.8524468190        4.6791375878       -0.6100776087
 H         -2.3198819184        5.2326368356        0.9715372986
 C         -1.3096137047        3.4602611472        0.2889896155
 H         -0.4337021059        4.0367661416        0.5967973871
 H         -1.4017532175        2.6237284292        0.9863522178
 C         -1.0269051691        2.9120781304       -1.1101648871
 H         -0.1525391985        2.2593698193       -1.0532573072
 H         -0.7954905187        3.7390019635       -1.7850267303
 C         -2.1763177054        2.0948481887       -1.7130836092
 H         -2.9958337391        2.7501637023       -2.0063249335
 H         -1.8006215815        1.5800476300       -2.6004754684
 H         -4.5098198327        4.4374217780        1.2659522325
 H         -3.4439911038        3.2544789921        2.0241688274
 H         -4.6667300914        2.9374864272       -0.7525826675
 H         -5.3734011705        2.2984975552        0.7415525960
 O         -4.0141269752        0.3874229394        1.0761126388
 C         -3.3884793672       -0.8467880229        1.1654395827
 O         -3.7966069726       -1.5581991658        2.1056621746
 H         -0.1906004124       -0.8725973289        1.7273794762
 C          0.3984379556       -1.5048171896        1.0734706999
 C         -0.2510756096       -2.4330327925        0.2683900055
 C          0.5164486545       -3.2295925364       -0.5712087464
 C          1.8948259240       -3.1054682257       -0.5874421867
 C          2.5371355080       -2.1850101697        0.2191654761
 C          1.7781143640       -1.3654020031        1.0453081627
 N          2.4039337153       -0.4187380317        1.8674223370
 S          3.8452729958        0.3073824735        1.4511876843
 O          4.9235536928       -0.6375445373        1.6085559803
 O          3.9090430205        1.4856225079        2.2871404430
 C          3.7156442592        0.7877684649       -0.2613625599
 C          4.5323216616        0.1985239424       -1.2050170785
 C          4.4188638530        0.5902733263       -2.5291314178
 C          3.4993483455        1.5646417476       -2.8837203837
 C          2.6939722254        2.1559024858       -1.9225367114
 C          2.7985521074        1.7629733468       -0.5983253883
 H          2.1923645862        2.2070446975        0.1755835488
 H          1.9846777036        2.9187610273       -2.2007975203
 H          3.4104830246        1.8697518424       -3.9143570884
 H          5.0476135251        0.1359721840       -3.2778295183
 H          5.2438756506       -0.5456262512       -0.8857850236
 H          1.7782826950        0.2163525585        2.3373001443
 H          3.6106584494       -2.0986521346        0.2311289954
 H          2.4793044776       -3.7359160729       -1.2400232420
 H          0.0377697377       -3.9399156798       -1.2242533948
 C         -1.7543725609       -2.5371063981        0.3782264148
 H         -1.9869102167       -2.8545406410        1.4090380194
 C         -2.3518931744       -3.5929644735       -0.5417498948
 C         -3.7361823518       -3.4480738759       -1.0982509626
 C         -2.5495854348       -3.3471416547       -2.0063879872
 H         -2.3617849074       -4.1587697684       -2.6940122714
 H         -2.2729470781       -2.3770124967       -2.3872726711
 H         -4.2827572926       -2.5462180595       -0.8627795541
 H         -4.3574467059       -4.3294933593       -1.1547764191
 H         -2.0617474148       -4.5972369152       -0.2488094592
 O         -1.0418154933       -0.4693163781       -1.5729750872
