  62
        -98.93861662
 C         -1.5517364245        0.8957999273       -0.3717026444
 C         -2.8769070062        0.9998293077       -0.8587509259
 C         -3.9568098759        0.7356516942        0.1057567951
 C         -3.6424890445        0.3962326204        1.3676526899
 C         -4.5688576008        0.1110365968        2.5235877934
 C         -5.8209147085       -0.7294040366        2.2402533781
 C         -5.6453213400       -1.8128174192        1.1661430939
 H         -4.5876978707       -1.9313682341        0.9230481723
 H         -5.9956351833       -2.7671877460        1.5638862627
 C         -6.4337517968       -1.5188125302       -0.1123815750
 H         -6.5693722982       -2.4524606361       -0.6636286469
 H         -7.4260139523       -1.1556829321        0.1640211993
 C         -5.7832134186       -0.5192827137       -1.0677178565
 H         -6.4916247810       -0.3143743315       -1.8739606994
 H         -4.8979368167       -0.9684719806       -1.5260238920
 C         -5.3546197531        0.8159708975       -0.4376222125
 H         -5.3258545184        1.5671072995       -1.2316223599
 H         -6.0633455742        1.1396978487        0.3205586493
 H         -6.6426303668       -0.0748118914        1.9533690872
 H         -6.1064994719       -1.1962182271        3.1845087651
 H         -4.8716904938        1.0675093116        2.9597566863
 H         -3.9474222504       -0.3972848925        3.2650593119
 O         -2.3511203993        0.2960698239        1.7924038678
 C         -1.2779954305        0.5357428931        0.9470523844
 O         -0.1652735328        0.4079106436        1.4912495817
 O         -3.1484765754        1.3110196145       -2.0492037071
 C         -0.4055119774        1.1379957458       -1.3399157041
 C          0.2757787653       -0.1812120090       -1.6105786283
 C         -0.4256606029       -1.1718144903       -2.2948501192
 C          0.1518106328       -2.4014565023       -2.5426666324
 C          1.4347015659       -2.6761575056       -2.0983928864
 C          2.1405711579       -1.6985519636       -1.4107255962
 C          1.5650046005       -0.4550105524       -1.1853905606
 H          2.1307839051        0.2958434158       -0.6641477737
 N          3.4513500584       -1.9284479833       -0.9515934805
 S          3.7512909033       -1.6991248714        0.6904657264
 O          4.9753867591       -2.4369047233        0.9308256182
 O          2.6139624784       -2.0914546110        1.4889739116
 C          4.0945729752        0.0391177601        0.8516675721
 C          5.2480701214        0.5222129562        0.2648584659
 C          5.5374577308        1.8728720398        0.3700024822
 C          4.6743256455        2.7110799660        1.0601437458
 C          3.5235102055        2.2078428589        1.6473856802
 C          3.2248409755        0.8573306106        1.5455093051
 H          2.3213955569        0.4377803131        1.9619902992
 H          2.8479064704        2.8589218886        2.1798517304
 H          4.8969344227        3.7636091221        1.1407113770
 H          6.4306228614        2.2684144889       -0.0860105073
 H          5.8930704525       -0.1665048449       -0.2547645913
 H          3.8358235642       -2.8162804410       -1.2448996283
 H          1.8834378268       -3.6414732183       -2.2802833879
 H         -0.4019284780       -3.1581114494       -3.0782821041
 H         -1.4322131836       -0.9608161358       -2.6294837685
 H         -0.8819591898        1.4696657599       -2.2735926763
 C          0.5295015373        2.2223025418       -0.8504493371
 C          1.4944307515        2.8580117173       -1.8050022722
 C          0.3190340027        3.6364148857       -1.2972878776
 H          0.4925382928        4.4308509619       -0.5873771789
 H         -0.4987915649        3.8295088781       -1.9760910782
 H          2.4786690264        3.1151731125       -1.4437247777
 H          1.4742849065        2.5213520246       -2.8303298647
 H          0.8563348288        2.0688023669        0.1705731636
