  62
        -98.94506422
 C          0.7218639717        1.6093510072       -1.1157244834
 C          2.0131492193        1.8350375543       -0.5754521181
 C          2.9908793426        0.7565507670       -0.7451324095
 C          2.6282142429       -0.3740555691       -1.3761347034
 C          3.4928923010       -1.5858210991       -1.5938758798
 C          3.5356013620       -2.5272694199       -0.3819972969
 C          4.3858818975       -2.0362113182        0.7904673751
 H          4.5364816241       -2.8894070036        1.4552196039
 H          5.3670507370       -1.7272158203        0.4271079283
 C          3.7463501939       -0.8967885023        1.5965293777
 H          2.6728386653       -0.8631825742        1.3926771682
 H          3.8541621231       -1.1048010894        2.6642604339
 C          4.3545244821        0.4833577921        1.3443088029
 H          3.7847006138        1.2158513243        1.9220089073
 H          5.3867750846        0.4987866317        1.7032687811
 C          4.3439174406        0.9274319634       -0.1235031307
 H          4.5924841852        1.9914050685       -0.1584695788
 H          5.0936170450        0.3739860191       -0.6890707793
 H          2.5142256402       -2.6964521529       -0.0300492094
 H          3.9378592905       -3.4847233125       -0.7223112672
 H          3.0657840770       -2.1277549807       -2.4405709134
 H          4.5061994384       -1.2777537865       -1.8537371152
 O          1.3960897922       -0.5405455650       -1.9175590559
 C          0.4014834392        0.4231304657       -1.7777543310
 O         -0.6793465680        0.0950308338       -2.2990890161
 O          2.3334666798        2.8988644636        0.0224495337
 C         -0.3288791301        2.6656024669       -0.8161799948
 C         -0.9311441590        2.3585719642        0.5329002603
 C         -1.0703732825        3.3294880607        1.5167409500
 C         -1.5557262991        2.9923918508        2.7690197415
 C         -1.8789945336        1.6819305418        3.0732557362
 C         -1.7446746488        0.7046775007        2.0931728996
 C         -1.3082897920        1.0559929039        0.8265744476
 H         -1.2203693685        0.2933080539        0.0701827362
 N         -2.0425406484       -0.6417527131        2.3453114992
 S         -1.1392366765       -1.8321551652        1.5823432666
 O         -1.3130201895       -3.0005890647        2.4236295005
 O          0.2289097713       -1.4190809905        1.3712656550
 C         -1.9677340310       -2.1284453673        0.0369185984
 C         -3.3249614672       -1.8985253977       -0.0646540234
 C         -3.9610139078       -2.1793910246       -1.2624813010
 C         -3.2363038045       -2.6896328530       -2.3283226094
 C         -1.8761694714       -2.9211786212       -2.2073463300
 C         -1.2334442691       -2.6385359548       -1.0135096803
 H         -0.1714650199       -2.7829332272       -0.8886197055
 H         -1.3085443060       -3.3063503768       -3.0390977930
 H         -3.7324682957       -2.9019523662       -3.2623040908
 H         -5.0184681896       -1.9940978464       -1.3631121103
 H         -3.8563868550       -1.4937965839        0.7808890077
 H         -2.2425791592       -0.8728030853        3.3073439502
 H         -2.2221554308        1.4139268486        4.0607985989
 H         -1.6594240148        3.7545630255        3.5263738450
 H         -0.7726930927        4.3459457070        1.3052051183
 H          0.2280120056        3.6117104279       -0.7222796667
 C         -1.3666988201        2.8490351732       -1.9113255985
 C         -2.7751597388        2.3567585626       -1.7970972368
 C         -2.4902731378        3.8249659330       -1.7199035253
 H         -2.7751629684        4.4538586124       -2.5495642192
 H         -2.5766567287        4.2993197550       -0.7539903138
 H         -3.2365104239        1.9581040463       -2.6870594057
 H         -3.0618043568        1.8416385019       -0.8937584446
 H         -0.9215902808        2.8033755138       -2.8996409321
