  62
        -98.94224462
 C          0.9224607357        1.4197747603        0.0121482377
 C          1.5245237732        0.5133357486        0.9127839305
 C          2.4728220669       -0.4571236268        0.3398835900
 C          2.7215756378       -0.4343909280       -0.9829724398
 C          3.5664567768       -1.3449059788       -1.8494822522
 C          4.6038181463       -2.2774495308       -1.2289013045
 C          5.7830545138       -1.5710087886       -0.5615146079
 H          6.4079189006       -2.3293785833       -0.0846675504
 H          6.3812594051       -1.0854653703       -1.3365612186
 C          5.4130779734       -0.5093840860        0.4711334449
 H          6.3421529663       -0.0979103266        0.8746442859
 H          4.8847046857        0.3103155827       -0.0200607320
 C          4.5748318170       -1.0067468034        1.6471774417
 H          4.5342370143       -0.2003039576        2.3839187008
 H          5.0676133010       -1.8619039829        2.1134941349
 C          3.1242527460       -1.3985036646        1.3121783320
 H          3.0613520381       -2.4238213937        0.9529587736
 H          2.5389511463       -1.3377391715        2.2344547508
 H          5.0008831396       -2.8858137096       -2.0462561612
 H          4.1261562751       -2.9614937467       -0.5334454256
 H          4.0603661811       -0.6910761373       -2.5755740781
 H          2.8496256587       -1.9503097913       -2.4172108676
 O          2.1378360072        0.4806573939       -1.8104969889
 C          1.2177106036        1.4086074133       -1.3500599622
 O          0.7543701633        2.1543067099       -2.2341829583
 O          1.2656396179        0.4977853113        2.1467566070
 C         -0.1317655939        2.3764804922        0.5297920902
 C         -1.4768984122        2.1007920234       -0.1021185949
 C         -2.4625574214        3.0759954493       -0.2089685195
 C         -3.6897839781        2.7722448754       -0.7718466960
 C         -3.9673335575        1.4977220400       -1.2323918811
 C         -2.9885635742        0.5154064230       -1.1307644269
 C         -1.7643420745        0.8229891844       -0.5592712552
 H         -1.0066787671        0.0577091951       -0.5087299756
 N         -3.2151310892       -0.7799189467       -1.6061525389
 S         -2.3161613059       -2.0902174223       -1.1164760746
 O         -0.9735582147       -2.0200836282       -1.6397821251
 O         -3.1013808164       -3.2270496152       -1.5504907437
 C         -2.2959665777       -2.0257641698        0.6655541464
 C         -1.0936695548       -1.9583668079        1.3382629428
 C         -1.0999843479       -1.8816995629        2.7215495417
 C         -2.3055809849       -1.8804266678        3.4051897288
 C         -3.5065799188       -1.9624327840        2.7164105786
 C         -3.5051327965       -2.0333109449        1.3331110021
 H         -4.4191209517       -2.1024100889        0.7663440747
 H         -4.4417205834       -1.9651394058        3.2528596335
 H         -2.3063792334       -1.8145793549        4.4817434924
 H         -0.1634700687       -1.7992718903        3.2493221723
 H         -0.1730761518       -1.9508504103        0.7743224428
 H         -4.1593618898       -1.0060813195       -1.8754556901
 H         -4.9220090981        1.2659138657       -1.6782919956
 H         -4.4435194471        3.5404395509       -0.8538216040
 H         -2.2646330485        4.0758890616        0.1414117614
 H         -0.2161660595        2.1621332260        1.6067660123
 C          0.3105554259        3.8164133324        0.3555467607
 C         -0.0305289207        4.8518490971        1.3843703815
 C          1.3779587317        4.3576331032        1.2578647708
 H          2.1247362551        5.0144387988        0.8376639969
 H          1.7589342633        3.6967446385        2.0228332757
 H         -0.2510789720        5.8549068417        1.0512734135
 H         -0.5974208468        4.5354457128        2.2469495184
 H          0.3377355332        4.1168050303       -0.6858925145
