  62
        -98.93863205
 C          1.9225521101        1.3678895615        0.3363758592
 C          2.5860931830        0.7441807123       -0.7444465038
 C          3.7538979413       -0.0971498759       -0.4095364731
 C          4.1125266177       -0.2258564471        0.8814068527
 C          5.2289072954       -1.0563230326        1.4556057872
 C          4.8841328827       -2.5546499323        1.5064659341
 C          4.1803248392       -3.0976867011        0.2648574162
 H          3.8751805747       -4.1257817700        0.4782108089
 H          3.2694514395       -2.5225273108        0.0860996635
 C          5.0252933544       -3.1165195239       -1.0067562907
 H          5.9003995025       -3.7500367172       -0.8443961692
 H          4.4209261693       -3.5796004728       -1.7911905738
 C          5.5023079166       -1.7545011678       -1.5136823676
 H          5.8975074762       -1.9041660063       -2.5228149025
 H          6.3269610142       -1.3826666886       -0.9115319775
 C          4.4100741514       -0.6953189181       -1.6303455136
 H          4.8101736737        0.1537252014       -2.1979958955
 H          3.5918806543       -1.0909992642       -2.2431408509
 H          4.2221607639       -2.7191742699        2.3603342438
 H          5.8035192909       -3.1159319247        1.6805718944
 H          5.3916199908       -0.7029257762        2.4761842249
 H          6.1440330584       -0.8857650691        0.8965262758
 O          3.4291379244        0.3826320359        1.8933593918
 C          2.3272855851        1.1808772036        1.6563636405
 O          1.7968867892        1.6529087291        2.6835510101
 O          2.2226039988        0.8724752869       -1.9426499954
 C          0.7132848253        2.2481403350        0.0792202191
 C         -0.3710448684        1.4541148123       -0.6090986039
 C         -1.0952610703        1.9290148659       -1.6942680266
 C         -2.0768099307        1.1467134828       -2.2792936444
 C         -2.3639972605       -0.1150109703       -1.7935736200
 C         -1.6600174546       -0.5910902356       -0.6939785987
 C         -0.6815541359        0.1958716595       -0.1069498275
 H         -0.1335515136       -0.1782145486        0.7496717597
 N         -1.9545614670       -1.8644971914       -0.1792859691
 S         -3.5622687196       -2.2986063818       -0.0189994857
 O         -3.5887500965       -3.2555902025        1.0650297662
 O         -4.0662427293       -2.7699894828       -1.2848994978
 C         -4.4135980873       -0.8009695872        0.4461186436
 C         -5.4258598175       -0.3079712401       -0.3516849218
 C         -6.0561495152        0.8700185453        0.0163615300
 C         -5.6618063721        1.5333519561        1.1676872071
 C         -4.6448390189        1.0236707050        1.9607266419
 C         -4.0133844536       -0.1550678274        1.5991759378
 H         -3.2222723246       -0.5779689522        2.1980068269
 H         -4.3380288868        1.5404373984        2.8560529028
 H         -6.1488088604        2.4529683565        1.4511450598
 H         -6.8482009745        1.2678608454       -0.5972106122
 H         -5.6975611714       -0.8540956569       -1.2403106915
 H         -1.4201919882       -2.1134616679        0.6394789996
 H         -3.1100624114       -0.7436113417       -2.2519405282
 H         -2.6228370639        1.5238317840       -3.1302717270
 H         -0.8844310995        2.9082957488       -2.0906864505
 H          0.3394524141        2.5443045287        1.0705302479
 C          1.1255326298        3.4938557342       -0.6770915413
 C          0.3753549965        4.7768716468       -0.4870769761
 C          1.7527100137        4.6228105548        0.0824360775
 H          2.5669434268        5.1637549296       -0.3759583856
 H          1.8572714278        4.5026570433        1.1512686199
 H          0.2454883581        5.4293520977       -1.3372590402
 H         -0.4581777098        4.7723862185        0.1986816811
 H          1.5235869973        3.2701326171       -1.6600348979
