  62
        -98.94191685
 C         -1.2791274862       -1.3870046553        0.7281024222
 C         -1.8488146794       -1.1235864855       -0.5422374057
 C         -2.7999627004       -0.0017339452       -0.5971659611
 C         -3.0237812034        0.7335537527        0.5060856489
 C         -3.9552525229        1.9080153870        0.5807581571
 C         -3.2328794745        3.2264688985        0.2745199328
 C         -2.3789338252        3.1851897779       -0.9923362922
 H         -1.9472375519        4.1786896971       -1.1256946033
 H         -1.5487150973        2.4913073623       -0.8411267020
 C         -3.1438082503        2.7917200520       -2.2634704990
 H         -4.2155162430        2.9226970412       -2.1089302614
 H         -2.8485751416        3.4641671445       -3.0714587853
 C         -2.8735585037        1.3672185479       -2.7506336486
 H         -3.2752082018        1.2717893093       -3.7630417513
 H         -1.7955225473        1.1962989133       -2.8091412348
 C         -3.4932539087        0.2459949252       -1.9074261803
 H         -4.5549369062        0.4479576815       -1.7493892515
 H         -3.4015297413       -0.6845385997       -2.4753996803
 H         -3.9818039534        4.0156103872        0.1863267683
 H         -2.5829356862        3.4643241789        1.1186043892
 H         -4.7715333147        1.7567075058       -0.1232659300
 H         -4.3654607675        1.9547660782        1.5911598995
 O         -2.3904858645        0.5047553702        1.6855667393
 C         -1.5060019225       -0.5521476653        1.8247667837
 O         -0.9882168630       -0.6380637486        2.9568099892
 O         -1.5982093252       -1.7886743165       -1.5795204305
 C         -0.3028072672       -2.5315445201        0.9380532519
 C          0.7522638267       -2.5007505761       -0.1402264249
 C          1.0041428497       -3.5442128743       -1.0197424207
 C          2.0001314602       -3.4241054944       -1.9735978946
 C          2.7760314617       -2.2824422312       -2.0528752434
 C          2.5319963306       -1.2318167470       -1.1747667502
 C          1.5182751492       -1.3458179138       -0.2397390746
 H          1.3197300197       -0.5258410927        0.4346317995
 N          3.2900992463       -0.0523144368       -1.2244848749
 S          3.7104525841        0.7381033988        0.1899187391
 O          4.9110306823        1.4706912154       -0.1539519776
 O          3.8212736649       -0.1793754261        1.2991592571
 C          2.4004453835        1.9114727306        0.4674476863
 C          1.6028508966        1.8141143858        1.5897442677
 C          0.6181754097        2.7671835406        1.7988364910
 C          0.4568162702        3.8021314240        0.8914384965
 C          1.2635824959        3.8848727385       -0.2338236110
 C          2.2441021341        2.9315240312       -0.4509903653
 H          2.8994634491        2.9667458679       -1.3052512209
 H          1.1304912193        4.6893899769       -0.9388735802
 H         -0.3003886941        4.5504795052        1.0644104691
 H         -0.0166349842        2.6860072948        2.6676012133
 H          1.7551363235        1.0002404432        2.2828207967
 H          4.0484789146       -0.0607857129       -1.8906685334
 H          3.5595098347       -2.1975396076       -2.7907067374
 H          2.1805697828       -4.2366236799       -2.6612179279
 H          0.4071036184       -4.4401552471       -0.9750741843
 H          0.2024365447       -2.3012276001        1.8916646706
 C         -0.9524669530       -3.8950056774        1.1181937531
 C         -2.3303420800       -4.0209080763        1.6954978633
 C         -2.0830421510       -4.3771943622        0.2619406233
 H         -2.1030673637       -5.4214906366       -0.0143007183
 H         -2.4468964779       -3.7149171787       -0.5065712508
 H         -2.5205797730       -4.8156587991        2.4012093469
 H         -2.8658666309       -3.1074808355        1.9114036251
 H         -0.2311207132       -4.6421793885        1.4361380457
