  62
        -98.93909986
 C         -1.8936987350       -0.8800092532       -0.2903647254
 C         -2.9961253481       -1.1330292529        0.5611901217
 C         -4.2975722894       -0.5841300658        0.1449425305
 C         -4.3754501171        0.1419597770       -0.9859346454
 C         -5.5583062497        0.7922849528       -1.6725328890
 C         -6.8816951273        0.9836184179       -0.9361164723
 C         -6.8317559110        1.9781862954        0.2231686409
 H         -7.7995206767        1.9608394973        0.7292099817
 H         -6.6884466663        2.9817053298       -0.1855739907
 C         -5.7292116153        1.7387649564        1.2517608946
 H         -5.8117876707        2.5160121568        2.0164648730
 H         -4.7524738245        1.8587578933        0.7780929725
 C         -5.7760774567        0.3852943329        1.9582104490
 H         -6.7614000668        0.2374236206        2.4043413327
 H         -5.0426391820        0.4128418225        2.7685024079
 C         -5.4471326263       -0.8333430271        1.0782584839
 H         -6.3216473025       -1.1722091255        0.5281505167
 H         -5.1365144027       -1.6498110070        1.7365108966
 H         -7.2680060825        0.0260649348       -0.5996151574
 H         -7.5927266564        1.3705095318       -1.6712779470
 H         -5.7464346689        0.1934410895       -2.5706690728
 H         -5.1995449399        1.7656385135       -2.0222285586
 O         -3.2814036242        0.3693439020       -1.7696379037
 C         -2.0243013884       -0.1177647518       -1.4493973708
 O         -1.1386717441        0.1908807338       -2.2695851381
 O         -2.9003339286       -1.8005642704        1.6251534980
 C         -0.5335089137       -1.4205438451        0.1176893430
 C          0.3406963993       -0.2590968075        0.5182562943
 C          0.1989661974        0.2948729685        1.7874545560
 C          0.9647569243        1.3778284796        2.1774476996
 C          1.8859589102        1.9354141971        1.3072744614
 C          2.0270126120        1.3949728414        0.0368951132
 C          1.2669786448        0.2992686579       -0.3489897591
 H          1.3795539360       -0.1008664957       -1.3441779492
 N          2.9752260851        1.9536692403       -0.8495538473
 S          4.5742411388        1.7770571873       -0.3800433885
 O          4.8269497161        2.6280917526        0.7546431989
 O          5.3645759387        2.0341096962       -1.5623688818
 C          4.7024271529        0.0634440615        0.0970778220
 C          4.9634625892       -0.8762361454       -0.8801338028
 C          4.9771111871       -2.2174550933       -0.5339491295
 C          4.7157067747       -2.5946662928        0.7743825613
 C          4.4526655625       -1.6388391119        1.7432683521
 C          4.4446149790       -0.2951608082        1.4048709995
 H          4.2488060997        0.4775141419        2.1298219601
 H          4.2495745274       -1.9345553414        2.7600048923
 H          4.7180102650       -3.6401645916        1.0397728907
 H          5.1865102580       -2.9634905169       -1.2837771508
 H          5.1635644134       -0.5403390614       -1.8851347591
 H          2.8622858652        1.6242983010       -1.7982263683
 H          2.5013823414        2.7730087896        1.5937963730
 H          0.8441465865        1.7937350170        3.1663088141
 H         -0.5279945846       -0.1334167401        2.4633463453
 H         -0.7220762078       -2.0277660676        1.0130995462
 C          0.0838705971       -2.2997739979       -0.9497117098
 C          1.2956248108       -3.1140029452       -0.6093824308
 C         -0.0238009902       -3.7890217401       -0.8299600255
 H         -0.1641656230       -4.3677071965       -1.7306243062
 H         -0.5465711182       -4.1850468749        0.0280760548
 H          2.0660377270       -3.2298385595       -1.3560080817
 H          1.6714443673       -3.0444360429        0.4000654706
 H          0.0184223258       -1.8775781724       -1.9451696613
