  62
        -98.94611694
 C         -1.7558606800       -1.1925543406       -0.3005756602
 C         -3.0966373699       -1.3147635508        0.1387506797
 C         -4.0172562001       -0.2686141109       -0.3198251201
 C         -3.5676645603        0.7093702193       -1.1272770000
 C         -4.3878951904        1.8350757492       -1.6963313999
 C         -4.5423271706        3.0329737891       -0.7491410597
 C         -5.4753998006        2.8040977088        0.4405301103
 H         -5.6607983607        3.7795914887        0.8945188404
 H         -6.4329865805        2.4251506587        0.0820817502
 C         -4.9143824904        1.8596539887        1.5128902001
 H         -3.8347073104        1.7583981389        1.3803706001
 H         -5.0757121505        2.2948782286        2.5016973702
 C         -5.5444490902        0.4667139786        1.5239714200
 H         -6.6020927602        0.5447160984        1.7852555200
 H         -5.0502223001       -0.1269307914        2.2973231599
 C         -5.4245180701       -0.2926690412        0.1957969199
 H         -5.6971782099       -1.3362127913        0.3711821197
 H         -6.1080509502        0.1279332488       -0.5413729401
 H         -3.5530720507        3.3208273292       -0.3861462797
 H         -4.9359909208        3.8649858891       -1.3374685196
 H         -3.8701782305        2.1720963194       -2.5969861898
 H         -5.3730344904        1.4643793191       -1.9805613299
 O         -2.2758833203        0.7790566495       -1.5445676800
 C         -1.3351968401       -0.1509782904       -1.1259049101
 O         -0.1857436102        0.0589505898       -1.5566173101
 H          2.0109295902       -2.0301224800       -0.2412450604
 C          1.6649468101       -1.5377344701        0.6515637397
 C          0.3215532001       -1.5376417904        0.9910297197
 C         -0.0738044200       -0.8748521306        2.1517697998
 C          0.8493926999       -0.2269948106        2.9479737999
 C          2.1891312199       -0.2181488903        2.5981240499
 C          2.5946247900       -0.8757353101        1.4443116898
 N          3.9536136000       -0.9016791898        1.0725436798
 S          4.3977500099       -0.2681138896       -0.4144164301
 O          3.7797187700       -1.0196631195       -1.4739048302
 O          5.8450763199       -0.2671006194       -0.3918457301
 C          3.8043368996        1.4134144903       -0.3655754199
 C          2.4823024596        1.6808590601       -0.6576635499
 C          2.0263415494        2.9846485201       -0.5300401497
 C          2.8873814192        3.9881551101       -0.1149667796
 C          4.2131857693        3.7005055703        0.1737819004
 C          4.6762184495        2.4009118204        0.0530794802
 H          5.6990856595        2.1314846505        0.2618572102
 H          4.8828411891        4.4825175204        0.4938059505
 H          2.5225815191        4.9987017601       -0.0178757795
 H          0.9938045193        3.1983105299       -0.7581586897
 H          1.8237186297        0.8907516301       -0.9835988700
 H          4.5709577899       -0.5304376498        1.7820000498
 H          2.9146195798        0.2896690597        3.2156122199
 H          0.5261633198        0.2789557493        3.8450545099
 H         -1.1216356900       -0.8796968208        2.4199681698
 C         -0.7371353298       -2.2200712005        0.1605970196
 H         -1.2941345397       -2.9058158106        0.8161661195
 C         -0.1877019297       -3.0082877202       -1.0082684305
 C          0.3794470505       -4.3767533602       -0.7820048507
 C         -0.9332332195       -4.2163485403       -1.4868130806
 H         -0.9769978995       -4.4076810402       -2.5485614907
 H         -1.8351187294       -4.4862971305       -0.9568182607
 H          1.2412435106       -4.6775232700       -1.3586380907
 H          0.3696511306       -4.7602406303        0.2271356193
 H          0.2807182902       -2.3828619301       -1.7603241504
 O         -3.5016852998       -2.2494877010        0.8801101096
