  62
        -98.94352393
 C         -1.8283760908       -0.8540987324       -0.7038022119
 C         -2.0687853337       -0.0919523515        0.4650351082
 C         -3.4745884863        0.0078324762        0.8779485149
 C         -4.4279463813       -0.6242441599        0.1695584218
 C         -5.9000447930       -0.6388486506        0.4814347148
 C         -6.6632057504        0.5839594957       -0.0459119499
 C         -6.4030318258        1.8884326021        0.7084828443
 H         -7.1584758705        2.6045280553        0.3788447235
 H         -6.5537360204        1.7253143535        1.7760909921
 C         -5.0122531558        2.4921789052        0.4684308105
 H         -4.5704906345        2.0448299581       -0.4249036300
 H         -5.1091272321        3.5629922569        0.2756779009
 C         -4.0394200302        2.3279681748        1.6361515675
 H         -4.4077011756        2.8844837630        2.5008353822
 H         -3.0776513176        2.7562701895        1.3435502246
 C         -3.7998339876        0.8725331824        2.0583314728
 H         -4.6711869019        0.4854015836        2.5861330495
 H         -2.9406130156        0.8471160853        2.7329958390
 H         -7.7295240355        0.3561634988        0.0222472825
 H         -6.4194769719        0.7186996188       -1.1022604333
 H         -6.3095129489       -1.5318883841        0.0042322691
 H         -6.0456917380       -0.7233892961        1.5587690612
 O         -4.1502714964       -1.3659833952       -0.9365323235
 C         -2.8523695073       -1.4873798920       -1.4067287532
 O         -2.7409036219       -2.1833143319       -2.4371236681
 O         -1.1619905472        0.4708815211        1.1303975929
 C         -0.4103464545       -1.0070027728       -1.2224115841
 C          0.4688782460       -1.6163524596       -0.1574992810
 C          0.0161773595       -2.7374435436        0.5338979352
 C          0.7881031236       -3.3166827551        1.5214687234
 C          2.0328637555       -2.7984802780        1.8340937381
 C          2.4998735509       -1.6879719444        1.1425942212
 C          1.7196517288       -1.1068540518        0.1515093174
 H          2.1014079857       -0.2511789480       -0.3784450836
 N          3.7420040247       -1.1226619728        1.4568157707
 S          4.6918351075       -0.4037531763        0.2886409532
 O          4.6312321446       -1.1173770761       -0.9659133392
 O          6.0021346159       -0.3116392966        0.8975045688
 C          4.0277364188        1.2369240335        0.0931341229
 C          4.0867108876        1.8290853078       -1.1531333329
 C          3.6005190306        3.1176961919       -1.3084096400
 C          3.0662343603        3.7885517167       -0.2193474803
 C          3.0185791686        3.1815038765        1.0262922297
 C          3.5069967778        1.8950354874        1.1893118043
 H          3.4760371017        1.3938142755        2.1422193332
 H          2.5978456530        3.7041384204        1.8702436516
 H          2.6827251790        4.7891636812       -0.3427475426
 H          3.6369593799        3.5916074540       -2.2766464363
 H          4.4989702435        1.2654923058       -1.9752575140
 H          4.2858164830       -1.6177732184        2.1474385623
 H          2.6347650206       -3.2472098219        2.6096111820
 H          0.4201405876       -4.1817418542        2.0527339997
 H         -0.9561410478       -3.1442016352        0.2896814921
 H         -0.4654291637       -1.7142468826       -2.0633826672
 C          0.0978740278        0.3242606088       -1.7366392948
 C          1.1178465694        0.3739424410       -2.8328389551
 C         -0.3006586794        0.7693110232       -3.1103651271
 H         -0.5230024180        1.8134827161       -3.2703117434
 H         -0.9179059838        0.0971547405       -3.6890068063
 H          1.8686202222        1.1488700509       -2.8002299855
 H          1.4743498972       -0.5653875598       -3.2284697121
 H          0.1457000223        1.0788974736       -0.9595505440
