  62
        -98.94472704
 C         -1.5083206393       -1.7705902236       -0.4716882283
 C         -1.5387111255       -0.5968946516       -1.2658581022
 C         -2.7424842699        0.2407178089       -1.1288549915
 C         -3.7144528425       -0.1224772643       -0.2749558617
 C         -4.9631204403        0.6646043708       -0.0037607453
 C         -4.7712439692        1.6353737951        1.1691502949
 C         -3.5144199620        2.4999760594        1.0639829486
 H         -2.6254675734        1.8713878520        1.1602754861
 H         -3.5136237672        3.1781443536        1.9207119342
 C         -3.4078417969        3.3155579915       -0.2318033900
 H         -3.0876193554        4.3286681684        0.0207917975
 H         -4.3871544610        3.3915977928       -0.7073017532
 C         -2.3908308327        2.7657134552       -1.2335849213
 H         -1.4458347286        2.5804317828       -0.7161774112
 H         -2.2078709386        3.5334776026       -1.9908735914
 C         -2.8095094721        1.4854083655       -1.9683064375
 H         -2.1067000200        1.3304895921       -2.7923717432
 H         -3.8096673203        1.6129442751       -2.3889935590
 H         -4.7102170234        1.0555150359        2.0931571129
 H         -5.6509412404        2.2793424572        1.2296903960
 H         -5.7623972655       -0.0361014620        0.2447462242
 H         -5.2410669952        1.2143544879       -0.9010368359
 O         -3.6504723739       -1.2524379747        0.4761887560
 C         -2.5480015775       -2.0864693612        0.4065962574
 O         -2.6128316731       -3.0814779201        1.1581506478
 O         -0.6291105145       -0.2492075898       -2.0608741570
 C         -0.3393930467       -2.7426089777       -0.4491064880
 C          0.6378618614       -2.3791867253        0.6424031374
 C          1.2682384794       -3.3620593027        1.3971585758
 C          2.1637931606       -3.0136908714        2.3928110348
 C          2.4384070633       -1.6853571550        2.6620524951
 C          1.7973838280       -0.6925772281        1.9266368257
 C          0.9169931300       -1.0484537961        0.9152863214
 H          0.4175582667       -0.2745608539        0.3578965062
 N          2.0106039281        0.6542916741        2.2250346104
 S          1.6770129254        1.9307403016        1.2071746355
 O          2.1708637786        3.0789984056        1.9381430141
 O          0.2789382916        1.9524877142        0.8642234130
 C          2.7102830468        1.6781835638       -0.2233908058
 C          2.1904339339        1.2366197078       -1.4218734127
 C          3.0542599106        1.0516174449       -2.4920566488
 C          4.4087540027        1.3021057492       -2.3477743639
 C          4.9150764607        1.7454664631       -1.1344933337
 C          4.0596205887        1.9365793479       -0.0634616204
 H          4.4075796931        2.3003337334        0.8896808089
 H          5.9690245446        1.9431962128       -1.0229954339
 H          5.0724392324        1.1532004577       -3.1849022732
 H          2.6525160497        0.7076006368       -3.4315225334
 H          1.1359172942        1.0300177729       -1.5212919198
 H          2.7363276207        0.8557123584        2.8941061499
 H          3.1256882013       -1.4138884186        3.4484353281
 H          2.6484768619       -3.7848777661        2.9720189828
 H          1.0356287384       -4.4011575214        1.2163730582
 H         -0.7762343305       -3.7187098883       -0.1812231977
 C          0.3355344490       -2.9039690166       -1.8045816436
 C          1.6759041877       -2.3222406970       -2.1256597333
 C          1.5264456613       -3.8029371621       -1.9615659361
 H          1.5826829233       -4.4297292415       -2.8386331991
 H          1.9396945558       -4.2503796868       -1.0710742638
 H          1.8204786266       -1.9182152984       -3.1151800467
 H          2.1865460521       -1.7682623032       -1.3528334840
 H         -0.3888977487       -2.9154147815       -2.6121783754
