  62
        -98.94318011
 C          1.8806238007        1.1512189038        0.3294444464
 C          2.4362206575        0.1455076594        1.1625757775
 C          3.8436602001       -0.1908487099        0.9245485535
 C          4.5331818894        0.4651658987       -0.0261444340
 C          5.9833186624        0.2607249391       -0.3714535575
 C          6.2375831076       -0.9023613144       -1.3398152662
 C          6.0663767448       -2.2978523721       -0.7384897931
 H          6.4836362673       -3.0090012903       -1.4541532499
 H          6.6552964591       -2.3733477012        0.1761280535
 C          4.6100793556       -2.6879073595       -0.4485771288
 H          3.9374340494       -2.0236859682       -0.9965111429
 H          4.4241143020       -3.7007658242       -0.8131119547
 C          4.2290125683       -2.6639065430        1.0318946346
 H          4.8011523154       -3.4229627756        1.5702688649
 H          3.1691118954       -2.9188570084        1.1169775704
 C          4.4471365617       -1.3094081789        1.7189073455
 H          3.9486457486       -1.3341489973        2.6911676358
 H          5.5114358972       -1.1343747725        1.8756972288
 H          5.5733811428       -0.7926366171       -2.2001287156
 H          7.2651108689       -0.8086513754       -1.6985738481
 H          6.3221925869        1.1840687514       -0.8460515890
 H          6.5588559665        0.1076391541        0.5419194133
 O          3.9732078405        1.4380545498       -0.7891091862
 C          2.6372580042        1.7929639009       -0.6518499715
 O          2.2781378295        2.6832860373       -1.4449359596
 O          1.7877636995       -0.4359419016        2.0740489817
 C          0.4161222554        1.4989830035        0.5454282935
 C         -0.4290742481        0.8711203020       -0.5370938173
 C         -0.5440647497        1.4309853958       -1.8057318835
 C         -1.3020617945        0.8072196027       -2.7794791090
 C         -1.9758005768       -0.3701798609       -2.5056359838
 C         -1.8668431381       -0.9389548085       -1.2428919454
 C         -1.0934721752       -0.3191077011       -0.2710833985
 H         -1.0029490019       -0.7837242869        0.6999517787
 N         -2.5446564745       -2.1328486709       -0.9298566087
 S         -3.5307566868       -2.1375672828        0.4244187076
 O         -2.7341109879       -2.1473365011        1.6235742341
 O         -4.4138718514       -3.2668872402        0.2322215153
 C         -4.4460908844       -0.6127028779        0.2922867423
 C         -5.5274093685       -0.5716036397       -0.5663253931
 C         -6.1983602264        0.6272396212       -0.7432264054
 C         -5.7718512855        1.7615396700       -0.0692476571
 C         -4.6858943523        1.7037186991        0.7902780223
 C         -4.0131421955        0.5060020543        0.9744663724
 H         -3.1668385439        0.4171626369        1.6364460725
 H         -4.3571008164        2.5870066896        1.3143549115
 H         -6.2893458849        2.6969663266       -0.2116889243
 H         -7.0467379459        0.6748961158       -1.4067188262
 H         -5.8311530048       -1.4784875474       -1.0638042492
 H         -3.0355982238       -2.5380709424       -1.7145851341
 H         -2.5730713949       -0.8520426102       -3.2649645205
 H         -1.3756862171        1.2476778358       -3.7621416949
 H         -0.0075758134        2.3378782652       -2.0328273982
 H          0.1502524621        1.0143983204        1.4951770394
 C          0.1737450871        2.9881253149        0.6827031166
 C         -1.0764401524        3.4587850291        1.3607274127
 C          0.2496188851        3.6156160140        2.0409258426
 H          0.6746909176        4.6042802748        2.1276493745
 H          0.4745359191        2.9704105193        2.8780980298
 H         -1.5678627982        4.3411660427        0.9814469775
 H         -1.7482641160        2.7033776852        1.7391800507
 H          0.5498764606        3.5692041755       -0.1485592571
