  62
        -98.93472999
 C         -2.0150941030       -0.5636136202        0.1694945650
 C         -2.7175590400        0.5746336363        0.6364155588
 C         -4.0799458846        0.7864825677        0.1192418424
 C         -4.5906824423       -0.0933418963       -0.7620397185
 C         -5.9176611808       -0.1228192743       -1.4915134536
 C         -7.0612519855        0.7951431412       -1.0688309507
 C         -7.6708601625        0.4687237170        0.2942913179
 H         -8.3967193809        1.2469251281        0.5400022822
 H         -8.2122056396       -0.4773777854        0.2141837300
 C         -6.6774138399        0.3337360796        1.4455225427
 H         -7.2430455823        0.0842724734        2.3474109957
 H         -6.0001024235       -0.5000354925        1.2498582648
 C         -5.8517777903        1.5828401726        1.7467222064
 H         -6.5170667160        2.4325661987        1.9122673489
 H         -5.3054195738        1.4004173141        2.6761261423
 C         -4.8205281777        1.9697555777        0.6728967477
 H         -4.0672564456        2.6089404137        1.1429036072
 H         -5.2803877684        2.5445994251       -0.1275962338
 H         -6.7441392357        1.8331641197       -1.1074988276
 H         -7.8486459522        0.6773560008       -1.8183470026
 H         -6.2585964502       -1.1622531189       -1.4493068678
 H         -5.6810023914        0.0799590030       -2.5419284815
 O         -3.8736218822       -1.1700715206       -1.1928156700
 C         -2.5829588545       -1.4386047302       -0.7555852949
 O         -2.0891145353       -2.4607651127       -1.2631548179
 O         -2.2201747320        1.3891937766        1.4609721702
 C         -0.6142011880       -0.7674219468        0.7163818568
 C          0.4063476657       -0.0863009897       -0.1586902906
 C          0.4394985167       -0.3060166814       -1.5321259057
 C          1.3902446039        0.3170184454       -2.3200394446
 C          2.3293136164        1.1632343686       -1.7563193002
 C          2.3086866751        1.3839060809       -0.3860494570
 C          1.3499014602        0.7613418378        0.4028156217
 H          1.3277495016        0.9514313106        1.4673342844
 N          3.2895957694        2.2151426499        0.1918857227
 S          4.8785057151        1.7270397310       -0.0466032274
 O          5.6383808620        2.3583924471        1.0078498575
 O          5.2755531303        2.0407418263       -1.3950416424
 C          4.8163197635       -0.0396826875        0.1861019648
 C          4.7717814818       -0.5260345785        1.4778847917
 C          4.6166090842       -1.8881984670        1.6765416748
 C          4.4949972674       -2.7351012522        0.5853402029
 C          4.5455795655       -2.2315824955       -0.7048412922
 C          4.7075475624       -0.8707418308       -0.9105208141
 H          4.7547576889       -0.4418190623       -1.8977141661
 H          4.4519154254       -2.8930315441       -1.5510266177
 H          4.3565032146       -3.7927758179        0.7420776857
 H          4.5811368858       -2.2844438831        2.6786509762
 H          4.8706789072        0.1648824478        2.3000607674
 H          3.1288395278        2.4023033677        1.1715728106
 H          3.0811293278        1.6522802375       -2.3545595682
 H          1.4015013252        0.1408084818       -3.3850270615
 H         -0.2846173556       -0.9751600603       -1.9718654061
 H         -0.6170177502       -0.2435207622        1.6854217207
 C         -0.2708849847       -2.2259006127        0.9891547003
 C          0.7753236422       -2.9863361677        0.2358329689
 C          1.0299968371       -2.5718785092        1.6516569818
 H          1.0329921420       -3.3260465452        2.4235051196
 H          1.7327675418       -1.7680089598        1.8128504641
 H          0.5760917729       -4.0250788230        0.0227159142
 H          1.3151500825       -2.4772823116       -0.5468749204
 H         -1.1415598544       -2.7931399755        1.3010005207
