  62
        -98.94340411
 C         -2.2768850918       -0.6766972591        0.0433894946
 C         -3.1287533941       -0.1799384958        1.0669265006
 C         -3.9920362488        0.9491395795        0.7088408456
 C         -3.9317933958        1.4636551370       -0.5323900173
 C         -4.7230014623        2.6349950176       -1.0477771158
 C         -6.1340362092        2.2733970312       -1.5313612703
 C         -7.1346088203        1.9379980990       -0.4246999295
 H         -7.1339106095        2.7361849808        0.3182053098
 H         -8.1253022809        1.9207025693       -0.8832235775
 C         -6.8866600819        0.5892465880        0.2651905588
 H         -7.8303848034        0.0462261961        0.3530561234
 H         -6.2239508244       -0.0201609724       -0.3536702310
 C         -6.2923890057        0.6952349905        1.6696933842
 H         -7.0061754961        1.1881102370        2.3334194229
 H         -6.1240316574       -0.3163316543        2.0476514871
 C         -4.9601371020        1.4533036064        1.7361162857
 H         -4.5175644734        1.2844869038        2.7207481783
 H         -5.1287824231        2.5221441075        1.6064760621
 H         -6.5162865181        3.1311014283       -2.0897036039
 H         -6.0611676516        1.4320023974       -2.2243941039
 H         -4.7876019826        3.4009342455       -0.2743531124
 H         -4.1628307204        3.0402707080       -1.8932262700
 O         -3.0976830192        0.9693484248       -1.4827504689
 C         -2.2637908192       -0.1115818639       -1.2316018398
 O         -1.5811936890       -0.4419921688       -2.2237416934
 O         -3.1641712039       -0.6631525491        2.2293333283
 C         -1.3892292073       -1.8527041958        0.4159243864
 C          0.0224311946       -1.4082975630        0.7198291719
 C          0.5709492009       -1.5948292474        1.9833511259
 C          1.8677923658       -1.1948564357        2.2539241412
 C          2.6407209380       -0.5957755715        1.2754914546
 C          2.1023003061       -0.4048317529        0.0095247675
 C          0.8049150968       -0.8173215027       -0.2617912886
 H          0.3897667245       -0.6618476209       -1.2465923714
 N          2.8593536135        0.2323932615       -0.9859702527
 S          4.4603537709       -0.2041593370       -1.2142576663
 O          4.7667436054        0.1744274741       -2.5762291478
 O          4.6918963963       -1.5868892655       -0.8657413513
 C          5.3524480121        0.8637396607       -0.1026559994
 C          5.1138584667        2.2221882317       -0.1752027533
 C          5.8076225398        3.0697125421        0.6735622610
 C          6.7252672705        2.5480180293        1.5734004684
 C          6.9558864117        1.1822369885        1.6317851727
 C          6.2644046203        0.3288108423        0.7859345857
 H          6.4066867340       -0.7400723689        0.8000031697
 H          7.6695967978        0.7788415441        2.3319947656
 H          7.2634104979        3.2103714629        2.2329483528
 H          5.6303703045        4.1323730528        0.6310789665
 H          4.3939542362        2.5874964724       -0.8887965990
 H          2.3725104514        0.3278954399       -1.8653133522
 H          3.6504471612       -0.2804066211        1.4813179958
 H          2.2810222238       -1.3467332066        3.2393180863
 H         -0.0310020603       -2.0466102375        2.7581728408
 H         -1.8193127915       -2.2488906837        1.3457071651
 C         -1.3903262070       -2.9607439448       -0.6196338631
 C         -1.0137694006       -4.3486923548       -0.1998396202
 C         -2.4361768082       -4.0308179529       -0.5491965513
 H         -2.8419510687       -4.4154581771       -1.4728508513
 H         -3.1571722805       -3.9726412349        0.2532481341
 H         -0.4375798575       -4.9540133999       -0.8828043928
 H         -0.7710921312       -4.5082156263        0.8397914847
 H         -1.0830419257       -2.6321183749       -1.6040689653
