  62
        -98.93463284
 C         -2.3463896569       -1.1896817562        0.1042361188
 C         -3.2565773327       -0.5098458996        0.9495590416
 C         -4.1374339348        0.4889137663        0.3194889035
 C         -4.0053502046        0.7464235014       -0.9950623081
 C         -4.7803995339        1.6675649496       -1.9138902653
 C         -5.6946179911        2.7498391550       -1.3456347528
 C         -4.9714844623        3.8743281090       -0.6051719405
 H         -4.4053600738        4.4617778924       -1.3323719761
 H         -5.7235541109        4.5301111931       -0.1612394490
 C         -3.9979503729        3.4281049581        0.4829702292
 H         -3.1837767610        2.8548041194        0.0341447417
 H         -3.5537201470        4.3252912570        0.9229987319
 C         -4.6144084824        2.6115749204        1.6174104273
 H         -5.4546758346        3.1585111677        2.0493948081
 H         -3.8534057759        2.5012359223        2.3951132328
 C         -5.0920636291        1.1996094871        1.2352240164
 H         -6.0906771105        1.2227312735        0.8053804411
 H         -5.1424638892        0.6024938413        2.1504933418
 H         -6.4568005783        2.3055220711       -0.7122866724
 H         -6.2131488764        3.1972714514       -2.1978958665
 H         -4.0339788428        2.1342088573       -2.5644697696
 H         -5.3792089161        1.0109165511       -2.5547754765
 O         -3.0764250141        0.1037348458       -1.7599231238
 C         -2.2218110559       -0.8614964151       -1.2455262349
 O         -1.4241252180       -1.3212331034       -2.0815607046
 O         -3.3342455176       -0.7288174111        2.1890004990
 C         -1.4337412180       -2.2261133285        0.7340123693
 C         -0.0033939513       -1.9777130221        0.3240000716
 C          0.7892884034       -2.9148196139       -0.3237349960
 C          2.0954140199       -2.6094785123       -0.6656878964
 C          2.6376028655       -1.3723423455       -0.3728909217
 C          1.8557223121       -0.4280194219        0.2801618614
 C          0.5514010779       -0.7401212670        0.6293541982
 H         -0.0591047588       -0.0026568535        1.1379405262
 N          2.3916610678        0.8401150897        0.5660700384
 S          3.8827240840        0.9225762630        1.3324846346
 O          4.1067628894       -0.2266197465        2.1789089614
 O          3.8990098870        2.2135229926        1.9856520237
 C          5.0561629181        0.9353043646       -0.0059921154
 C          4.9183344394        1.9019736551       -0.9826508611
 C          5.8275699468        1.9310580990       -2.0278631026
 C          6.8551848165        1.0007124791       -2.0764876656
 C          6.9822588802        0.0391283953       -1.0858482479
 C          6.0752669820        0.0037149318       -0.0380630071
 H          6.1305372883       -0.7292134888        0.7509952442
 H          7.7818678988       -0.6829499171       -1.1255456765
 H          7.5610067814        1.0256079568       -2.8916195631
 H          5.7315310151        2.6770990498       -2.8002750772
 H          4.1077236956        2.6075362580       -0.9067574793
 H          1.7336390884        1.4722245090        0.9981727957
 H          3.6514151910       -1.1299825210       -0.6463451224
 H          2.6980358375       -3.3449855375       -1.1763910715
 H          0.3790324081       -3.8770848104       -0.5814035977
 H         -1.5084441883       -2.0299787133        1.8174854192
 C         -1.8821596972       -3.6650509480        0.5284360631
 C         -3.3269666670       -4.0000275754        0.3124289286
 C         -2.3411336590       -4.1838000081       -0.8001448049
 H         -2.0670178261       -5.1911055392       -1.0779346653
 H         -2.3594851473       -3.4920623803       -1.6272283809
 H         -3.7281459108       -4.8769614467        0.7980117287
 H         -4.0265826376       -3.1793548145        0.2457261993
 H         -1.3201990020       -4.3540601810        1.1518413749
