  62
        -98.93052619
 C          1.7399545374        0.8440556385        0.6341827665
 C          2.1625149221       -0.4794047286        0.3565552175
 C          3.5939632249       -0.6884653845        0.0740891101
 C          4.4143554321        0.3769819159        0.0646798582
 C          5.8997802698        0.4260530196       -0.1900078327
 C          6.4255700728       -0.4184708651       -1.3609321450
 C          7.2437924386       -1.6321692349       -0.9166514003
 H          7.9172652679       -1.9157209054       -1.7285841290
 H          7.8640403099       -1.3408634265       -0.0663815726
 C          6.4242016489       -2.8664807398       -0.5444885550
 H          7.1103484717       -3.6020637999       -0.1180218191
 H          6.0003487484       -3.3049999687       -1.4505113041
 C          5.2874153540       -2.6218468021        0.4499891470
 H          5.0595050808       -3.5728707652        0.9360505301
 H          5.6058132446       -1.9337135319        1.2322567412
 C          3.9953212267       -2.1111470755       -0.2050913454
 H          4.0426972771       -2.2579874836       -1.2880410214
 H          3.1460949388       -2.7084490110        0.1410740749
 H          5.5963246942       -0.7312451269       -1.9936069624
 H          7.0714579987        0.2189172947       -1.9670754606
 H          6.4184525472        0.1471886873        0.7306692671
 H          6.1221755526        1.4813407360       -0.3638949349
 O          3.9653548404        1.6358656835        0.3283448129
 C          2.6355373135        1.9132441864        0.6169677782
 O          2.4138525082        3.1190438704        0.8257702308
 O          1.3686957313       -1.4594040566        0.3569668120
 C          0.2664124113        1.0306939676        0.9417682429
 C         -0.5354903231        1.3420110802       -0.2956009030
 C         -0.1068316856        2.2763744285       -1.2324864860
 C         -0.8828945399        2.5590932410       -2.3419634061
 C         -2.1065790785        1.9389251864       -2.5246759752
 C         -2.5443235462        1.0045110225       -1.5938723614
 C         -1.7468051087        0.6984039920       -0.5001794799
 H         -2.0792424617       -0.0472610583        0.2048864129
 N         -3.7770478258        0.3559802493       -1.7423474195
 S         -4.7256389849        0.0622665294       -0.3922284716
 O         -6.0718462097       -0.0439684521       -0.9117013089
 O         -4.5109124732        1.0593039139        0.6293048728
 C         -4.1969710516       -1.5387329578        0.1768200396
 C         -4.2425330228       -2.5939145046       -0.7126757069
 C         -3.8433513874       -3.8488870745       -0.2829261416
 C         -3.4090217319       -4.0268784424        1.0220423196
 C         -3.3729496700       -2.9582200209        1.9041333876
 C         -3.7714099641       -1.7002700370        1.4802058982
 H         -3.7538038395       -0.8418646550        2.1339196463
 H         -3.0328388403       -3.0975650611        2.9178545844
 H         -3.0954855306       -5.0038763950        1.3545544198
 H         -3.8692254012       -4.6833644062       -0.9650859732
 H         -4.5895624558       -2.4165770683       -1.7169288138
 H         -4.3267258870        0.6575259202       -2.5334553217
 H         -2.7181469242        2.1753182435       -3.3822251762
 H         -0.5386494135        3.2837978795       -3.0646115591
 H          0.8326930653        2.7852542067       -1.0771082611
 H         -0.0691827575        0.0454299607        1.3039126543
 C          0.0015457532        2.0311962694        2.0584853264
 C         -0.5461194676        3.4039908379        1.8282853371
 C         -1.4038663708        2.3580575660        2.4716022205
 H         -1.6213651805        2.4474756205        3.5255686003
 H         -2.2177405119        1.9502177200        1.8886882930
 H         -0.1542572160        4.2075166668        2.4329263567
 H         -0.7745283286        3.6982194943        0.8160336588
 H          0.7303359356        1.9387479713        2.8580589454
