  62
        -98.94335726
 C          1.2043801981        0.6944246147        0.6338423655
 C          1.9150299599        0.5410989767       -0.5822318309
 C          2.8713317462       -0.5741056927       -0.6237074561
 C          2.9524167334       -1.4313100896        0.4086392586
 C          3.8565766592       -2.6305466474        0.4987542424
 C          5.2802520960       -2.3057958210        0.9719107018
 C          6.1564584512       -1.5803689878       -0.0501890402
 H          7.1804771574       -1.6116736356        0.3271603630
 H          6.1398919492       -2.1276430174       -0.9931966317
 C          5.7649851395       -0.1164258003       -0.2953363318
 H          5.1238958279        0.2298351103        0.5186196305
 H          6.6615441592        0.5072291128       -0.2839355276
 C          5.0547067106        0.1353879284       -1.6254522994
 H          5.7342725406       -0.0859237538       -2.4512873368
 H          4.7933627391        1.1952652579       -1.6792396012
 C          3.7695253743       -0.6805540282       -1.8188586437
 H          3.2276010980       -0.2747769321       -2.6768950705
 H          4.0113334542       -1.7238772460       -2.0217179542
 H          5.7622486891       -3.2529158921        1.2250370359
 H          5.2167918325       -1.7107394301        1.8859654095
 H          3.8967244981       -3.1315638694       -0.4691304760
 H          3.3982501453       -3.3105427674        1.2204714244
 O          2.1736555595       -1.3126513627        1.5170756620
 C          1.2907082479       -0.2540121675        1.6555861338
 O          0.6349311417       -0.2738544352        2.7177426586
 O          1.7695193394        1.2845612607       -1.5862405473
 C          0.1915283636        1.8086966062        0.8309384489
 C         -0.7693447010        1.8374768820       -0.3334749526
 C         -1.1596940222        2.9896754734       -1.0022527525
 C         -2.0764766653        2.9165927349       -2.0376174705
 C         -2.6375075772        1.7093595701       -2.4119391924
 C         -2.2496950938        0.5495262137       -1.7495820002
 C         -1.3229913667        0.6254637530       -0.7247511104
 H         -1.0006810065       -0.2830696152       -0.2396898904
 N         -2.7832431718       -0.7004437978       -2.0946534834
 S         -2.9652149858       -1.8851261846       -0.9331232215
 O         -1.6898671488       -2.4702267258       -0.5990955416
 O         -3.9412268508       -2.7899797526       -1.5031275604
 C         -3.6752461170       -1.0519962489        0.4765958508
 C         -4.9569664991       -0.5537591967        0.3391127633
 C         -5.5308954358        0.1293675770        1.3980459033
 C         -4.8145833597        0.3081639624        2.5721879660
 C         -3.5324177239       -0.2024549248        2.6973901388
 C         -2.9545402270       -0.8910848012        1.6419130163
 H         -1.9557138519       -1.2933387824        1.7171172644
 H         -2.9664280538       -0.0668504507        3.6054926796
 H         -5.2572031510        0.8454722323        3.3959646892
 H         -6.5303553693        0.5223734435        1.3050908693
 H         -5.4858240253       -0.7222846481       -0.5847398282
 H         -3.5464267467       -0.6813168076       -2.7540381909
 H         -3.3546743119        1.6581595354       -3.2165172386
 H         -2.3639174581        3.8174885105       -2.5581070212
 H         -0.7332179857        3.9410015937       -0.7302155286
 H         -0.3899770476        1.4998702120        1.7164328752
 C          0.7937940956        3.1658171301        1.1653904178
 C          2.1912350785        3.2872364765        1.6946746420
 C          1.8608865969        3.8016000838        0.3275326351
 H          1.8258228404        4.8712612257        0.1796416521
 H          2.2123230419        3.2504397955       -0.5296147834
 H          2.3811670270        3.9983077564        2.4848941127
 H          2.7772844088        2.3823266189        1.7713819730
 H          0.0608860385        3.8354360885        1.6047557858
