  62
        -98.93466411
 C         -2.1685278508       -0.8290612124        0.1232267077
 C         -3.0311294022       -0.2158999090        1.0637643279
 C         -3.8868301600        0.8790751076        0.5733893620
 C         -3.7773456923        1.2750628344       -0.7082809836
 C         -4.4800193596        2.3740994096       -1.4778643640
 C         -5.7202632158        3.0569780253       -0.9075276194
 C         -6.9571306994        2.1634015643       -0.8164306551
 H         -7.7426491153        2.7182689335       -0.2988746668
 H         -7.3095287572        1.9549892769       -1.8297544999
 C         -6.7527694154        0.8220873766       -0.1165754021
 H         -7.7051409980        0.2854334073       -0.1374224116
 H         -6.0338749727        0.2215892956       -0.6779156072
 C         -6.3001553993        0.9063732365        1.3397774942
 H         -6.3438043452       -0.1031644818        1.7578745338
 H         -6.9941072950        1.5313719686        1.9051700636
 C         -4.8728594595        1.4365796325        1.5592810226
 H         -4.8498429201        2.5237697302        1.5545778562
 H         -4.5377685195        1.1066340746        2.5471991207
 H         -5.9595603324        3.8818693076       -1.5841220260
 H         -5.4959251575        3.4990899177        0.0588090058
 H         -4.7256873514        1.9432484936       -2.4537498440
 H         -3.7177122820        3.1388577582       -1.6634985514
 O         -2.8784660977        0.7014968097       -1.5599256452
 C         -2.0613436304       -0.3555092797       -1.1840466856
 O         -1.3081216072       -0.7541315472       -2.0898857372
 O         -3.0786903684       -0.5614607041        2.2756126033
 C         -1.2962483561       -1.9738431582        0.6041414193
 C          0.1337807260       -1.7628155613        0.1726001696
 C          0.8593558648       -2.6801222758       -0.5746241701
 C          2.1735522218       -2.4173924389       -0.9213429841
 C          2.7902265006       -1.2422369700       -0.5357165564
 C          2.0753036628       -0.3179171871        0.2153010078
 C          0.7631847593       -0.5883809305        0.5692611954
 H          0.2059103956        0.1331381980        1.1558662325
 N          2.6899474642        0.8879358598        0.5989800763
 S          4.1727216878        0.8034959255        1.3832332803
 O          4.3095890849       -0.4306905153        2.1217254918
 O          4.2628641953        2.0256270428        2.1526108928
 C          5.3647358171        0.8611739787        0.0623454175
 C          5.3306602779        1.9405403069       -0.7985768522
 C          6.2571425771        2.0052735808       -1.8269390807
 C          7.1980704640        0.9969036327       -1.9744432383
 C          7.2212451937       -0.0783836633       -1.0995513705
 C          6.2967998030       -0.1495022336       -0.0689684590
 H          6.2732941176       -0.9681409872        0.6325222297
 H          7.9537662933       -0.8608866254       -1.2157389796
 H          7.9176805878        1.0500359082       -2.7760887896
 H          6.2422218759        2.8400452539       -2.5090868937
 H          4.5859670214        2.7042219443       -0.6474680550
 H          2.0710483422        1.5222749025        1.0827712469
 H          3.8105481493       -1.0318182647       -0.8116737302
 H          2.7234137895       -3.1371470245       -1.5083311240
 H          0.3914233779       -3.5930208928       -0.9037924349
 H         -1.3260947860       -1.8931192929        1.7045173719
 C         -1.8351292996       -3.3548903321        0.2616723872
 C         -3.3005287385       -3.5802186101        0.0421664721
 C         -2.3442790745       -3.7016927340       -1.1041941884
 H         -2.1360374777       -4.6878646030       -1.4928467447
 H         -2.3325015689       -2.9253635025       -1.8527535315
 H         -3.7464434798       -4.4788569302        0.4414375565
 H         -3.9508776019       -2.7181109522        0.0771454357
 H         -1.3070218003       -4.1378014374        0.7975661791
