  62
        -98.94247329
 C         -1.5080522192       -1.4042242816       -0.4162212086
 C         -1.4830528694       -0.0138794519       -0.6850623098
 C         -2.4361224196        0.8029519187        0.0799329994
 C         -3.2252432797        0.2325489593        1.0057524298
 C         -4.2178784199        0.9413298500        1.8871039090
 C         -5.5784892498        1.1950814292        1.2230913986
 C         -5.5883076098        2.2830502283        0.1483420177
 H         -6.6343329098        2.5074698179       -0.0696391426
 H         -5.1369067300        3.1910279687        0.5494379270
 C         -4.8850689196        1.8892670072       -1.1580145519
 H         -5.5109814595        2.1711698164       -2.0075844522
 H         -4.7655651395        0.8039674972       -1.1930245909
 C         -3.5188367197        2.5434506773       -1.3632403723
 H         -3.0935408195        2.1648813065       -2.2959626919
 H         -3.6407404598        3.6243576872       -1.4615746232
 C         -2.5145435198        2.2659522884       -0.2373250619
 H         -1.5241241898        2.5886821382       -0.5677270020
 H         -2.7794332100        2.8323246191        0.6554687176
 H         -5.9373525996        0.2561462788        0.7951374694
 H         -6.2747317400        1.4879345898        2.0124035883
 H         -3.7926675200        1.8862008103        2.2278620083
 H         -4.3728789899        0.2990797307        2.7570021395
 O         -3.1937273495       -1.1023606904        1.2659105609
 C         -2.3461470093       -1.9422575709        0.5637629717
 O         -2.4336068692       -3.1437101206        0.8928452228
 O         -0.7190662194        0.5404968875       -1.5156596102
 C         -0.5900089390       -2.4103257721       -1.0945641376
 C          0.6577641009       -2.5927666812       -0.2675867573
 C          1.1159384510       -3.8572191708        0.0795141038
 C          2.2377057810       -3.9986250300        0.8779461041
 C          2.9090983707       -2.8874208995        1.3531465232
 C          2.4601919906       -1.6152045199        1.0082914921
 C          1.3540297207       -1.4801698807        0.1843697718
 H          1.0025975106       -0.4967204710       -0.0735781791
 N          3.1345630904       -0.4810598794        1.4698027712
 S          2.4550543001        1.0395135607        1.6491345698
 O          3.1864307999        1.6143302317        2.7606208294
 O          1.0207866201        0.9826522306        1.7948837697
 C          2.9478891402        1.8864577095        0.1605932091
 C          2.0922646503        2.0120020884       -0.9141872811
 C          2.5426761304        2.6641817675       -2.0529259516
 C          3.8291358503        3.1760383177       -2.1004349519
 C          4.6770830002        3.0427783387       -1.0107370916
 C          4.2345167402        2.3929229296        0.1286608989
 H          4.8536481101        2.2802231405        1.0032312590
 H          5.6776000602        3.4428616088       -1.0464074919
 H          4.1709623904        3.6820482469       -2.9896528923
 H          1.8766198005        2.7617222467       -2.8953615718
 H          1.0930057004        1.6061407683       -0.8716803109
 H          3.8523290503       -0.6552935287        2.1563422314
 H          3.7708485907       -2.9987044888        1.9934827934
 H          2.5840855611       -4.9851251697        1.1467488650
 H          0.5751491912       -4.7289500512       -0.2587148655
 H         -1.1388712189       -3.3660577422       -1.0742182669
 C         -0.2988671189       -2.0867137333       -2.5526610479
 C          1.0217345011       -1.5788231635       -3.0391482981
 C          0.6040941714       -2.9833883339       -3.3475812470
 H          0.3243796215       -3.2330839848       -4.3598160968
 H          1.1032217614       -3.7799827933       -2.8165302362
 H          1.0113793811       -0.8456109342       -3.8306675088
 H          1.8079937810       -1.4252125428       -2.3166253082
 H         -1.1770592689       -1.7046271439       -3.0627001183
