  62
        -98.93295414
 C         -2.5269629499       -1.4080558269        0.1629291145
 C         -2.7985359869       -0.4066413897       -0.7997621230
 C         -3.9659565629        0.4575205206       -0.5343139178
 C         -4.6907775325        0.2764746298        0.5819643425
 C         -5.9384798364        0.9966408824        1.0296005943
 C         -5.9968918342        2.5166779982        0.8327261154
 C         -4.6539914187        3.2420506700        0.9997084263
 H         -4.7828747853        4.0721105983        1.6966763079
 H         -3.9148573793        2.5651819678        1.4318718093
 C         -4.1156045692        3.8121671430       -0.3145781643
 H         -4.9399263171        4.2762223440       -0.8603911525
 H         -3.3912707584        4.5978781442       -0.0865296334
 C         -3.4172167047        2.8047460119       -1.2267992947
 H         -2.4711366884        2.4927000159       -0.7755004006
 H         -3.1721207359        3.3114575367       -2.1635686405
 C         -4.2220736186        1.5347524281       -1.5495750574
 H         -5.2825955295        1.7542809149       -1.6444943784
 H         -3.8614927938        1.1419278489       -2.5042606497
 H         -6.4035679065        2.7427701338       -0.1519056361
 H         -6.7116354897        2.9004055213        1.5627327245
 H         -6.7926131403        0.5377456765        0.5227816758
 H         -6.0330648571        0.7620858956        2.0926477809
 O         -4.3784738363       -0.6850735315        1.4963194684
 C         -3.3101033053       -1.5412914420        1.3131079465
 O         -3.1617684634       -2.3748854306        2.2285555228
 H         -0.1758948270       -0.1449570767       -0.7671664963
 C          0.4074740024       -0.6760823665       -0.0286947691
 C         -0.0822339391       -1.8652066990        0.4948970700
 C          0.6856844617       -2.5439028292        1.4333619803
 C          1.9136928332       -2.0452907341        1.8325542826
 C          2.4025949510       -0.8663959337        1.2987916601
 C          1.6420924994       -0.1803161071        0.3610559044
 N          2.1491629300        1.0119837051       -0.2022475315
 S          3.5250217563        0.8045395448       -1.1551237365
 O          3.5506660922        1.9379448646       -2.0531602665
 O          3.5412139678       -0.5040589047       -1.7686040059
 C          4.8691832389        0.9490706036        0.0030930767
 C          5.7254517293       -0.1165292183        0.1998804056
 C          6.7672448313        0.0199685048        1.1042483225
 C          6.9333769584        1.2130158610        1.7909338764
 C          6.0659315928        2.2746973501        1.5797285203
 C          5.0230750050        2.1452813936        0.6764441519
 H          4.3299104520        2.9456633783        0.4779360443
 H          6.1989075339        3.2009310160        2.1151940179
 H          7.7438797878        1.3162373037        2.4950266083
 H          7.4429084107       -0.8037461241        1.2695730648
 H          5.5532611034       -1.0258703985       -0.3532357204
 H          1.4530101833        1.5081807554       -0.7425170291
 H          3.3597071360       -0.4746689431        1.6023464122
 H          2.4978354964       -2.5818687233        2.5643174415
 H          0.3092179802       -3.4648042691        1.8545180743
 C         -1.4011625016       -2.4209251353        0.0250408210
 H         -1.6761576352       -3.2403688304        0.7074573716
 C         -1.3209159029       -3.0132201836       -1.3781516294
 C         -0.1740062930       -2.8057993612       -2.3177224274
 C         -0.3698998162       -4.1380177645       -1.6625272521
 H         -0.7110521686       -4.9687283308       -2.2613956987
 H          0.3218281141       -4.4104502028       -0.8795118339
 H          0.6610092871       -2.1982912503       -2.0027914482
 H         -0.4045297595       -2.7028511929       -3.3676190992
 H         -2.3015303864       -3.0834294671       -1.8387317294
 O         -2.1215429956       -0.2268699169       -1.8461593146
