  62
        -98.93568647
 C         -2.2650224938       -0.7733212059       -0.2183907649
 C         -1.3993507102       -0.8686223061        0.8937462976
 C         -0.5723754673       -2.0856474740        0.9791892407
 C         -0.6477432270       -2.9963652978       -0.0059215348
 C          0.1647372922       -4.2535628484       -0.1511597704
 C          1.4242608941       -3.9882868357       -0.9947172556
 C          2.6462698234       -3.5417168852       -0.1946782788
 H          3.0031588168       -4.3737035819        0.4168576173
 H          3.4313984569       -3.2970503592       -0.9140216583
 C          2.4097116200       -2.3239032284        0.7021114129
 H          1.8084776556       -1.5947781389        0.1561122850
 H          3.3771078439       -1.8564388452        0.9000253818
 C          1.7435750717       -2.6763495605        2.0399600657
 H          2.3166994887       -2.2271910386        2.8533854825
 H          1.7921014894       -3.7558636060        2.1844284625
 C          0.2926667570       -2.2003635132        2.2051950468
 H         -0.2146672162       -2.8541728061        2.9228559854
 H          0.2883508105       -1.1960021734        2.6384676157
 H          1.1809494422       -3.2205595145       -1.7349963548
 H          1.6842412564       -4.8996498850       -1.5377173016
 H         -0.4647702406       -4.9732180260       -0.6788699852
 H          0.4234726071       -4.6600783295        0.8224317227
 O         -1.4808310925       -2.8558031518       -1.0742071080
 C         -2.2945500257       -1.7487110528       -1.2127681638
 O         -2.9979981305       -1.7467736903       -2.2460300594
 O         -1.3039380276        0.0263936985        1.7740124315
 C         -3.1355555616        0.4655201650       -0.4125213351
 C         -2.2329585815        1.6710101267       -0.2796778847
 C         -2.3553520008        2.7611069903        0.5717099970
 C         -1.3877679884        3.7541163889        0.5923981963
 C         -0.2606417972        3.6762475179       -0.2021033905
 C         -0.1268419524        2.5936930851       -1.0642604485
 C         -1.1246750937        1.6383505541       -1.1252738027
 H         -1.0071903244        0.8109108868       -1.8103854383
 N          1.0139426310        2.4289292057       -1.8776589391
 S          1.9498214549        1.0589170538       -1.6372583169
 O          3.0202252087        1.1637814744       -2.6058700502
 O          1.1288230622       -0.1212369626       -1.7184347533
 C          2.6312262780        1.2445209066        0.0022053866
 C          3.9742618811        1.5415669160        0.1318605492
 C          4.5064108919        1.7118854054        1.3995782359
 C          3.6876167328        1.5910658645        2.5122479091
 C          2.3407392178        1.2994183228        2.3642143248
 C          1.8016217565        1.1231755913        1.0991603627
 H          0.7573322590        0.8874581054        0.9675940144
 H          1.6957167424        1.2051574373        3.2233000036
 H          4.0999710363        1.7236323228        3.5000706414
 H          5.5543469255        1.9375097601        1.5149831497
 H          4.5704828379        1.6234750809       -0.7625434724
 H          1.6177775113        3.2394041153       -1.9023914597
 H          0.5078843494        4.4328706262       -0.1547877021
 H         -1.5066409790        4.5904295578        1.2644364935
 H         -3.1852226441        2.8499873829        1.2483958544
 H         -3.4550676983        0.4287011640       -1.4681562590
 C         -4.4030698971        0.2993867327        0.4110957564
 C         -4.5519549917        0.6626118971        1.8549318411
 C         -5.3378178282        1.4013624164        0.8110570693
 H         -6.3972537254        1.2009076642        0.7452738200
 H         -5.0779994479        2.4178611844        0.5664354310
 H         -5.0799170828       -0.0313184217        2.4931968115
 H         -3.7166235794        1.1378192550        2.3420488845
 H         -4.8833620306       -0.6306217683        0.1114850332
