  62
        -98.94001539
 C         -1.2837270218       -1.1902218024        0.0381369432
 C         -2.1640261065       -0.7524729655        1.0528251177
 C         -2.8043966529        0.5558056707        0.8391717292
 C         -2.5006493338        1.2661558819       -0.2608200629
 C         -2.9995004294        2.6354281786       -0.6488649828
 C         -4.5026042152        2.9120412891       -0.4900989283
 C         -5.4162975974        1.6905554309       -0.6667127587
 H         -6.2125064741        1.9431226035       -1.3694994628
 H         -4.8547993902        0.8591883352       -1.0959894957
 C         -6.0727489421        1.2422555524        0.6415889892
 H         -6.4104041372        2.1275585806        1.1850925917
 H         -6.9587722573        0.6483409413        0.4044358757
 C         -5.1954953145        0.3950984249        1.5628452286
 H         -5.0475591458       -0.5960589358        1.1253755214
 H         -5.7342923607        0.2520088436        2.5027773714
 C         -3.8071725922        0.9774804137        1.8741332636
 H         -3.8487682112        2.0589899318        1.9799689117
 H         -3.4676114635        0.5471393724        2.8204562196
 H         -4.6903085944        3.3529870641        0.4881815979
 H         -4.7644206583        3.6699957130       -1.2301935718
 H         -2.4410807423        3.3779369067       -0.0718002061
 H         -2.7147276911        2.7546905531       -1.6963552210
 O         -1.6228990097        0.8173961634       -1.2007329649
 C         -0.9989704642       -0.4144676426       -1.0857654284
 O         -0.2335927821       -0.6953309985       -2.0242659744
 H          0.7655301517       -0.7303894742        1.5967643392
 C          1.4361084211       -1.3046684259        0.9687225494
 C          0.9124872933       -2.3104507326        0.1646653771
 C          1.7854241430       -3.0415361779       -0.6289950159
 C          3.1403284848       -2.7544159844       -0.6309360926
 C          3.6540050161       -1.7416292272        0.1575286438
 C          2.7900975807       -1.0138373602        0.9660873554
 N          3.2998872710        0.0292781714        1.7707793866
 S          4.0028057506        1.3104810503        0.9489083705
 O          5.2465143925        0.8672863925        0.3727775227
 O          4.0932827620        2.3806462249        1.9168249766
 C          2.8457330705        1.7377433896       -0.3376442193
 C          1.8255051208        2.6187573875       -0.0399096529
 C          0.8982757000        2.9250555660       -1.0219921579
 C          0.9980784648        2.3370525989       -2.2729476425
 C          2.0218357377        1.4464815253       -2.5524319581
 C          2.9573197796        1.1418939306       -1.5774314261
 H          3.7699543544        0.4577156752       -1.7588553350
 H          2.0846562318        0.9788822040       -3.5212284301
 H          0.2666213222        2.5641057104       -3.0319977315
 H          0.0968814939        3.6144165875       -0.8086619117
 H          1.7848681164        3.0585926227        0.9443438378
 H          2.6154940491        0.3924014025        2.4198286947
 H          4.7026662276       -1.4918344444        0.1517745535
 H          3.8055773258       -3.3257761284       -1.2603470040
 H          1.4050841434       -3.8299243247       -1.2572181194
 C         -0.5801280195       -2.5266803207        0.1892879769
 H         -0.8605496395       -2.8980002258        1.1862910272
 C         -1.0719177411       -3.5084139299       -0.8529144431
 C         -1.0518999074       -4.9807260156       -0.5733864203
 C         -2.3550111704       -4.2417751867       -0.6065202155
 H         -3.0232478565       -4.4074088786       -1.4382799415
 H         -2.8619779771       -4.0535333676        0.3288024098
 H         -0.6767008646       -5.3028689894        0.3862048673
 H         -0.8278073441       -5.6572611100       -1.3842454203
 H         -0.8731935115       -3.1744002049       -1.8650194053
 O         -2.3930345597       -1.4157841931        2.1011025658
