  62
        -98.94191714
 C          1.2601731769        1.3979888506        0.7271742636
 C          1.8366325347        1.1378061619       -0.5407596265
 C          2.8020834796        0.0278190277       -0.5893703001
 C          3.0284806594       -0.7039691200        0.5156913183
 C          3.9761079691       -1.8649587407        0.5977215886
 C          3.2763703507       -3.1943379098        0.2862170890
 C          2.4320659420       -3.1662727888       -0.9874036212
 H          2.0167348502       -4.1662733380       -1.1241874284
 H          1.5902264596       -2.4850723297       -0.8430145959
 C          3.2011516753       -2.7612517028       -2.2523370472
 H          2.9232064304       -3.4384118284       -3.0625166149
 H          4.2734862808       -2.8753368052       -2.0889565678
 C          2.9124795272       -1.3412617466       -2.7420265838
 H          1.8324232232       -1.1871490938       -2.8089755103
 H          3.3204886104       -1.2398129811       -3.7513046982
 C          3.5082314754       -0.2103236219       -1.8945740184
 H          4.5717193495       -0.3958543514       -1.7284959970
 H          3.4065439784        0.7184241035       -2.4637832206
 H          4.0380905856       -3.9718189084        0.2041305562
 H          2.6236469804       -3.4422526820        1.1252420034
 H          4.7955675274       -1.7015501766       -0.0999168149
 H          4.3791241254       -1.9053993207        1.6113051995
 O          2.3845110466       -0.4828803653        1.6909001682
 C          1.4897526302        0.5658877557        1.8253939643
 O          0.9656548538        0.6473485750        2.9548915483
 H         -1.3329371900        0.5172104296        0.4356834826
 C         -1.5383564526        1.3339199023       -0.2404311659
 C         -0.7801444952        2.4942865621       -0.1449921537
 C         -1.0403798026        3.5337085549       -1.0268564338
 C         -2.0379740444        3.4047318763       -1.9779246845
 C         -2.8068489637        2.2579810923       -2.0524063968
 C         -2.5535378649        1.2108510678       -1.1727019648
 N         -3.3032681288        0.0260218459       -1.2183464648
 S         -3.7069673982       -0.7724449219        0.1962923241
 O         -4.9026858472       -1.5152649724       -0.1423657780
 O         -3.8195710229        0.1403475257        1.3091848950
 C         -2.3838945573       -1.9341432991        0.4609792401
 C         -1.5754524063       -1.8299647791        1.5748727274
 C         -0.5796672815       -2.7738196790        1.7728189300
 C         -0.4179471585       -3.8065394341        0.8629473620
 C         -1.2358150821       -3.8963135875       -0.2537228857
 C         -2.2276508701       -2.9522337724       -0.4596709457
 H         -2.8918376987       -2.9931433520       -1.3068427105
 H         -1.1025278891       -4.6991221595       -0.9606686364
 H          0.3482189808       -4.5476548489        1.0273278824
 H          0.0634200415       -2.6869574786        2.6349452214
 H         -1.7278616064       -1.0183157611        2.2705844874
 H         -4.0650755130        0.0281174978       -1.8806112850
 H         -3.5918975015        2.1665469243       -2.7877749335
 H         -2.2254992628        4.2144438123       -2.6669651965
 H         -0.4489826912        4.4335660508       -0.9858141441
 C          0.2747356590        2.5353776567        0.9330743627
 H         -0.2292913796        2.3036687791        1.8870127633
 C          0.9139453256        3.9041398788        1.1103863449
 C          2.2889621518        4.0417958360        1.6918126717
 C          2.0437439403        4.3921247725        0.2564229801
 H          2.0568804941        5.4357481453       -0.0227513568
 H          2.4152045124        3.7304836690       -0.5089666445
 H          2.8303553408        3.1328419500        1.9119958627
 H          2.4711865644        4.8398528905        2.3958963996
 H          0.1861887459        4.6470252956        1.4237261734
 O          1.5810604598        1.7968557111       -1.5806666867
