  62
        -98.94430474
 C         -1.8281740368        1.1182303233        0.0861227995
 C         -2.2910581861        0.0029496552        0.8251118404
 C         -3.7500474526       -0.1521382091        0.8922388331
 C         -4.5491509068        0.7509980214        0.2958122740
 C         -6.0538500280        0.7384917306        0.2955205251
 C         -6.6703294004       -0.1580043050       -0.7871790320
 C         -6.5425484348       -1.6615356456       -0.5386387786
 H         -6.9095746730       -1.8961943322        0.4609890449
 H         -7.2005219779       -2.1611074742       -1.2524933462
 C         -5.1201618020       -2.2134426105       -0.7093300611
 H         -4.5137537851       -1.4946157837       -1.2650639914
 H         -5.1532813761       -3.1298443807       -1.3028047284
 C         -4.4085267530       -2.5489461677        0.6014766268
 H         -4.9308332114       -3.3661724117        1.1040503209
 H         -3.3968116129       -2.8895911280        0.3656380103
 C         -4.2939115783       -1.3696980962        1.5762196822
 H         -5.2635692273       -1.1558930543        2.0254716420
 H         -3.5933695434       -1.6464438114        2.3681219019
 H         -7.7326917408        0.0891125417       -0.8480904016
 H         -6.2153033486        0.0920953968       -1.7482798899
 H         -6.3731860302        1.7668572265        0.1134268790
 H         -6.4178645396        0.4300585706        1.2758884799
 O         -4.0628143106        1.8237234515       -0.3837130448
 C         -2.6984645624        2.0207924566       -0.5249993552
 O         -2.3907490804        3.0194876834       -1.2066631258
 O         -1.5324520410       -0.8203402224        1.4001054802
 C         -0.3361764561        1.3608618889       -0.0652643156
 C          0.3092990487        0.1482552037       -0.6886564886
 C         -0.1977672004       -0.3190599907       -1.8996896709
 C          0.3325328857       -1.4415798780       -2.5030618949
 C          1.3889840080       -2.1173491201       -1.9171867440
 C          1.9069346081       -1.6560813519       -0.7133843106
 C          1.3750372911       -0.5221913647       -0.1107872131
 H          1.7827638411       -0.1993339868        0.8321746025
 N          2.9681372647       -2.3306705397       -0.0990867104
 S          4.0861101625       -1.5428339447        0.8471934065
 O          5.2354938058       -2.4235746761        0.8443943522
 O          3.5395300794       -1.2354511189        2.1448906831
 C          4.4876164341       -0.0305056988       -0.0125956331
 C          4.6924376234       -0.0602265073       -1.3778830899
 C          5.0243017271        1.1157196965       -2.0309887988
 C          5.1520922646        2.2947219352       -1.3126759104
 C          4.9520079694        2.3069703218        0.0586025873
 C          4.6164460332        1.1340023377        0.7157302982
 H          4.4461639887        1.0981949825        1.7796686721
 H          5.0523929561        3.2236043397        0.6175018386
 H          5.4093276509        3.2088619174       -1.8241255868
 H          5.1813840605        1.1092926699       -3.0975806736
 H          4.5921542287       -0.9892005231       -1.9146306979
 H          3.3662470096       -3.0950252441       -0.6226022443
 H          1.7997908064       -3.0015857846       -2.3801335119
 H         -0.0772940278       -1.7954490978       -3.4370653692
 H         -1.0259674748        0.2086847837       -2.3535346802
 H         -0.2346832138        2.2019006285       -0.7664276799
 C          0.2622246858        1.7636592442        1.2652712102
 C          1.4832608717        2.6300260312        1.3100530005
 C          0.1503489440        3.1931192363        1.6998674539
 H         -0.0388313369        3.4023342824        2.7420950614
 H         -0.3368413531        3.8786650582        1.0216390681
 H          2.2086963486        2.4504458527        2.0886852878
 H          1.9119926164        2.9393596358        0.3689347862
 H          0.1484535768        0.9996652542        2.0262734994
