  62
        -98.94452644
 C         -1.3328905377       -1.0371346880       -0.1265756750
 C         -2.5862622729       -1.3511398546        0.4540682477
 C         -3.4728721944       -0.2125560631        0.7277758634
 C         -3.0431314535        1.0340148453        0.4589928232
 C         -3.8555036827        2.2807296227        0.6543709435
 C         -4.6350568630        2.6404929610       -0.6180137888
 C         -5.4164697446        1.4695022278       -1.2137685886
 H         -5.9525986716        1.8462119726       -2.0876089197
 H         -4.7115672940        0.7150571449       -1.5706257785
 C         -6.4125153971        0.8139154710       -0.2470312250
 H         -6.6193129461        1.4872546585        0.5855829015
 H         -7.3554833473        0.6506904556       -0.7732041390
 C         -5.9664113973       -0.5440652146        0.2984987252
 H         -5.6689274089       -1.1916377399       -0.5302527564
 H         -6.8251450131       -1.0125557496        0.7868300069
 C         -4.8219478496       -0.5107912221        1.3194272229
 H         -5.0600944227        0.1976008813        2.1154683618
 H         -4.7414827804       -1.5085731301        1.7605953221
 H         -5.3215814607        3.4562167697       -0.3840846352
 H         -3.9267067064        2.9962205069       -1.3695948855
 H         -4.5435794523        2.1337580933        1.4844777232
 H         -3.1760792380        3.0990400999        0.8968419891
 O         -1.8231083786        1.2992419623       -0.0714960628
 C         -0.9414148283        0.2758122245       -0.3919778793
 O          0.1268405435        0.6659868718       -0.8951516227
 H          2.1551611013       -1.1151773173       -0.8515238032
 C          2.0007038402       -1.4602639379        0.1562014434
 C          0.7992490258       -2.0417567275        0.5309776655
 C          0.6409979885       -2.4657972977        1.8486216132
 C          1.6621046147       -2.3159383127        2.7666001651
 C          2.8564641960       -1.7242584304        2.3933829906
 C          3.0209981897       -1.2910228284        1.0827035376
 N          4.2238367663       -0.6914247224        0.6828054101
 S          4.2748354205        0.5076747188       -0.4736540393
 O          4.0613127706       -0.0512467737       -1.7852444328
 O          5.5727788024        1.1227025937       -0.2707958653
 C          3.0162263258        1.7127582298       -0.0881484179
 C          2.5271471550        2.4785646252       -1.1250949037
 C          1.6013564976        3.4709209167       -0.8519384778
 C          1.1774070755        3.6775818501        0.4500581520
 C          1.6785454160        2.9012055770        1.4817790854
 C          2.6126736059        1.9133875688        1.2154122653
 H          3.0066617336        1.2985134622        2.0084820264
 H          1.3396513283        3.0564095435        2.4941305081
 H          0.4454763759        4.4418854634        0.6604603672
 H          1.2032169871        4.0682257389       -1.6567705458
 H          2.8649916868        2.2703278559       -2.1276927795
 H          4.8899161415       -0.5219176464        1.4220074682
 H          3.6559488431       -1.6002186503        3.1081333857
 H          1.5275301482       -2.6553600366        3.7823916581
 H         -0.3000042014       -2.9095125050        2.1425780490
 C         -0.3660590809       -2.1735662141       -0.4171536546
 H         -0.9121456388       -3.0928532370       -0.1640503582
 C          0.0341071535       -2.2322602388       -1.8753180388
 C          0.6560569887       -3.4849689526       -2.4132962011
 C         -0.7379814991       -3.1080576595       -2.8139279923
 H         -0.9095825620       -2.7587477145       -3.8211357932
 H         -1.5584582266       -3.6790543527       -2.4040805378
 H          1.4470841859       -3.3936147626       -3.1420990970
 H          0.7813789342       -4.3118039191       -1.7304465979
 H          0.3912200058       -1.2860085418       -2.2636707921
 O         -2.9455129930       -2.5270902491        0.7315704368
