  62
        -98.94438543
 C          2.3406057290        1.1246785693        0.2399084692
 C          2.3811210246       -0.1309180698       -0.4136837816
 C          3.3652437859       -1.0892742234        0.1076089666
 C          4.1258416558       -0.7647621210        1.1682485377
 C          5.1522388392       -1.6449604245        1.8281727062
 C          6.5268830446       -1.6223455357        1.1456559533
 C          6.5994882225       -2.3519299585       -0.1963095008
 H          6.2023989167       -3.3610603921       -0.0818982095
 H          7.6564743728       -2.4449129018       -0.4534302246
 C          5.8735236208       -1.6383618829       -1.3452702682
 H          6.5134719496       -1.6287917069       -2.2304148493
 H          5.6915377577       -0.5969508001       -1.0703432914
 C          4.5473170495       -2.2804087533       -1.7529581157
 H          4.7311059763       -3.2793463549       -2.1548271981
 H          4.1025780723       -1.6749790532       -2.5468835245
 C          3.5245524182       -2.3932403475       -0.6146258130
 H          3.8194902514       -3.1797231223        0.0798642636
 H          2.5548515877       -2.6553873717       -1.0458584405
 H          7.2369773073       -2.0930692983        1.8294015445
 H          6.8332117579       -0.5823553786        1.0121303481
 H          4.7821596420       -2.6697604684        1.8715624944
 H          5.2683245221       -1.2738799942        2.8487344309
 O          4.0281780940        0.4377536022        1.7943959612
 C          3.1506169078        1.4080549279        1.3432680180
 O          3.1816829026        2.4686138443        1.9986920635
 O          1.6472596824       -0.4503428579       -1.3864440177
 C          1.3789316189        2.2222347993       -0.1913217629
 C         -0.0186611661        1.8017848238        0.1938567117
 C         -0.4819810812        2.0703578242        1.4787772786
 C         -1.7326243985        1.6407840987        1.8810233443
 C         -2.5434510841        0.9263080519        1.0157213191
 C         -2.0819377255        0.6366245519       -0.2606388898
 C         -0.8344455565        1.0892037942       -0.6707154426
 H         -0.4814847160        0.8437349592       -1.6596383126
 N         -2.8897024452       -0.0986601269       -1.1447690514
 S         -3.6489508070       -1.4805359156       -0.5708696954
 O         -2.9084253017       -2.0971297695        0.5057610698
 O         -3.8834364958       -2.2977269924       -1.7416635716
 C         -5.2139111886       -0.8759787314        0.0294156920
 C         -5.6380341393       -1.2045142346        1.3020270078
 C         -6.8642437347       -0.7315384378        1.7433395617
 C         -7.6411562096        0.0563682489        0.9081303486
 C         -7.2022689156        0.3750140262       -0.3684398573
 C         -5.9781821745       -0.0954347160       -0.8158816446
 H         -5.6021454388        0.1278241412       -1.8002099739
 H         -7.8088667551        0.9884611310       -1.0149903231
 H         -8.5940024091        0.4244368264        1.2543849784
 H         -7.2066569835       -0.9786731136        2.7354091268
 H         -4.9972141200       -1.8144882515        1.9189788606
 H         -2.4444537684       -0.2809894194       -2.0330671178
 H         -3.5145614643        0.5780651095        1.3273434525
 H         -2.0803657367        1.8603619478        2.8790707856
 H          0.1606700966        2.6071825452        2.1628107368
 H          1.6435200994        3.1031336510        0.4082004639
 C          1.5300308997        2.5708967468       -1.6574442765
 C          0.9260511412        3.8422467802       -2.1709096108
 C          2.4141212762        3.7150375351       -2.0487575720
 H          3.0013523800        3.6263350103       -2.9505675812
 H          2.9109810827        4.2564701049       -1.2568537666
 H          0.4895005283        3.8447147534       -3.1578915829
 H          0.4114206128        4.4703300214       -1.4596610663
 H          1.5265053879        1.7076079504       -2.3105238502
