  62
        -98.93900332
 C         -1.8997571110       -0.2663075497       -0.0087720860
 C         -2.9695025043       -1.0000189739        0.5544755880
 C         -4.2698755318       -0.3138530399        0.6402379551
 C         -4.3777065894        0.9527368488        0.1971321574
 C         -5.5520712406        1.9092148722        0.1964283331
 C         -6.9749180160        1.4020211585        0.4181556941
 C         -7.5160249254        0.5038263344       -0.6933497081
 H         -8.4971183547        0.1351665146       -0.3858910293
 H         -7.6550709509        1.1086797740       -1.5930301833
 C         -6.6344030912       -0.6847095473       -1.0687944632
 H         -5.6911032232       -0.3249274755       -1.4850287734
 H         -7.1432244482       -1.2405946821       -1.8610943220
 C         -6.3355799470       -1.6621000103        0.0665094138
 H         -7.2708145243       -1.9946168251        0.5208698142
 H         -5.8480142140       -2.5361248565       -0.3734066449
 C         -5.4124499903       -1.1276911088        1.1759555663
 H         -5.9708505143       -0.5622338937        1.9180856078
 H         -4.9651943099       -1.9860577350        1.6854464369
 H         -7.6150021294        2.2872119581        0.4672723207
 H         -7.0527792795        0.9043091242        1.3801936479
 H         -5.3275048968        2.6562199892        0.9659690158
 H         -5.5049961239        2.4338292709       -0.7631634109
 O         -3.3096537257        1.6277034784       -0.3209473079
 C         -2.0570761380        1.0472856718       -0.4458941414
 O         -1.1978891708        1.7938891190       -0.9511229216
 H          1.6660858510        0.5564892935       -0.9284736607
 C          1.5190948744        0.5329626694        0.1374993681
 C          0.4626360164       -0.1696344891        0.6933033145
 C          0.2949862171       -0.1425156321        2.0766734513
 C          1.1567611697        0.5782638349        2.8788702542
 C          2.2106072706        1.2807825814        2.3195922073
 C          2.3871840836        1.2616410100        0.9416980738
 N          3.4322449802        1.9904669086        0.3529632476
 S          4.3765790063        1.3444580621       -0.8627229459
 O          5.4935413095        2.2567245778       -0.9718946988
 O          3.5998231710        1.1385549484       -2.0575450790
 C          4.9383058977       -0.2164537148       -0.2075609326
 C          4.2045890144       -1.3607069776       -0.4468035024
 C          4.6212849617       -2.5529416215        0.1245956344
 C          5.7558584459       -2.5805547774        0.9205801106
 C          6.4837142668       -1.4223952274        1.1488813082
 C          6.0704077249       -0.2268811076        0.5843276199
 H          6.6117667372        0.6943250488        0.7268907495
 H          7.3683840912       -1.4478050823        1.7645187676
 H          6.0755165282       -3.5109578046        1.3627275041
 H          4.0571291089       -3.4543156380       -0.0544272566
 H          3.3301851051       -1.3031721019       -1.0733591432
 H          4.0012880608        2.5065458533        1.0077664357
 H          2.8816545109        1.8520046042        2.9429941650
 H          1.0112730104        0.5934415238        3.9484521389
 H         -0.5325404588       -0.6873219973        2.5101199841
 C         -0.5407846790       -0.9344448990       -0.1323568163
 H         -0.6681289085       -1.9299594027        0.3168438545
 C         -0.1542431837       -1.1043147492       -1.5854435298
 C          0.7969181987       -2.1922132286       -1.9821784260
 C         -0.6561652140       -2.3020834416       -2.3326362228
 H         -0.9510737860       -2.1794523304       -3.3640467195
 H         -1.2623775939       -3.0098542887       -1.7862515903
 H          1.5024339448       -1.9947520377       -2.7759176023
 H          1.1732498672       -2.8334431482       -1.1992509001
 H         -0.1110995040       -0.1661724055       -2.1275573923
 O         -2.8437129506       -2.1801989551        0.9784225901
