  62
        -98.93906216
 C          2.5393454830        1.1438371300        0.6320151477
 C          3.4160412148        0.9963663236       -0.4713482929
 C          4.4935148928        0.0064657112       -0.3021015571
 C          4.5776289601       -0.6999101964        0.8387518318
 C          5.5867230459       -1.7767740738        1.1115668017
 C          5.0570658302       -3.1554630766        0.6931382375
 C          4.4698382750       -3.1896997907       -0.7179450315
 H          3.5684007304       -2.5726557609       -0.7436372024
 H          4.1587253972       -4.2179566537       -0.9151971154
 C          5.4343129501       -2.7263914475       -1.8187398189
 H          5.3703839056       -3.4246983190       -2.6558614946
 H          6.4599457146       -2.7569964935       -1.4492138217
 C          5.1375483947       -1.3333783883       -2.3768054005
 H          4.0840742120       -1.2699443231       -2.6602974310
 H          5.7300338150       -1.1982738237       -3.2855562570
 C          5.4572227888       -0.1586302611       -1.4438416402
 H          5.3842513139        0.7606161756       -2.0323062503
 H          6.4802509579       -0.2502733328       -1.0737115705
 H          4.2754445112       -3.4542867950        1.3957733006
 H          5.8738271327       -3.8758532202        0.7672310337
 H          6.5055497575       -1.5507701863        0.5739447989
 H          5.7961271704       -1.7878747845        2.1825999903
 O          3.7084382329       -0.5417526454        1.8706635752
 C          2.6725978468        0.3711411152        1.7887125983
 O          1.9465360374        0.4142692322        2.8039117262
 H         -0.9845824456        1.6831826352        1.8725759185
 C         -0.9854544168        1.2999592488        0.8608672699
 C          0.1502898843        1.4435475454        0.0790436119
 C          0.1493553495        0.9090213553       -1.2063909673
 C         -0.9730882304        0.2664279076       -1.6945118509
 C         -2.1101297523        0.1359136025       -0.9149620361
 C         -2.1107047611        0.6434815550        0.3766965614
 N         -3.2568452821        0.5151702294        1.1767490492
 S         -4.0664968213       -0.9544422179        1.2155342430
 O         -4.7710106224       -0.9582371767        2.4788139452
 O         -3.1735729381       -2.0633714518        0.9721083916
 C         -5.2524194541       -0.8164590474       -0.1063654390
 C         -6.0832028349        0.2868725761       -0.1244843348
 C         -7.0179503127        0.4039245267       -1.1405980088
 C         -7.1091034941       -0.5804790423       -2.1134409593
 C         -6.2710579265       -1.6843348291       -2.0787642607
 C         -5.3324942131       -1.8066351204       -1.0657829606
 H         -4.6563609244       -2.6445744743       -1.0020353090
 H         -6.3437060586       -2.4492403330       -2.8351794432
 H         -7.8374974606       -0.4869257886       -2.9033665099
 H         -7.6712666687        1.2609754818       -1.1710511948
 H         -5.9835349064        1.0273923340        0.6512977619
 H         -3.1497915676        0.8918892007        2.1075334569
 H         -2.9835912315       -0.3708535323       -1.2911561117
 H         -0.9642177065       -0.1401414237       -2.6945623037
 H          1.0392738354        1.0013476926       -1.8106840941
 C          1.3732783225        2.1201153794        0.6421650437
 H          1.1791011683        2.3180199423        1.7083409655
 C          1.6963624383        3.4561255183       -0.0128975570
 C          1.0103982781        3.9734018343       -1.2382772138
 C          0.7146116813        4.5859636183        0.0952042518
 H          1.0847604040        5.5769980800        0.3097797856
 H         -0.2431245849        4.3650082263        0.5428945527
 H          0.2480591892        3.3641736359       -1.6968620371
 H          1.6085801324        4.5278101768       -1.9450997389
 H          2.7443832765        3.7151699281        0.0925042615
 O          3.3252090298        1.6452617606       -1.5437164872
