  62
        -98.93605590
 C         -1.6838055459       -0.1651507304        0.3167454367
 C         -2.7932775097       -0.8907822935        0.8172182713
 C         -4.1226723260       -0.2747173233        0.6630363097
 C         -4.2215844519        0.9403913272        0.0933863092
 C         -5.4214845659        1.8289443681       -0.1609633356
 C         -6.8402120993        1.2790415884       -0.0393569829
 C         -7.2212945513        0.2519400657       -1.1052990505
 H         -8.2075067885       -0.1472295887       -0.8585986187
 H         -7.3011988299        0.7642779589       -2.0674694464
 C         -6.2454399104       -0.9086824108       -1.2824172115
 H         -5.2792763475       -0.5266544024       -1.6189790073
 H         -6.6312929346       -1.5512204123       -2.0786172483
 C         -6.0332147989       -1.7788677455       -0.0452164701
 H         -5.4453480386       -2.6485558788       -0.3512668075
 H         -6.9968327757       -2.1394213163        0.3197030802
 C         -5.2890027700       -1.1033149093        1.1192879287
 H         -5.9657380128       -0.5112302419        1.7305549042
 H         -4.8741969930       -1.8897847974        1.7565272541
 H         -7.0032673603        0.8756085769        0.9556535854
 H         -7.5148038693        2.1326330124       -0.1486334955
 H         -5.3161441544        2.6721694257        0.5307000077
 H         -5.2808439888        2.2387169089       -1.1664150568
 O         -3.1190103692        1.6243954430       -0.3297340586
 C         -1.8341464840        1.1051660150       -0.2379849533
 O         -0.9549061915        1.8707091543       -0.6736443493
 O         -2.6782939456       -2.0097933234        1.3841641389
 C         -0.3118803641       -0.7991670380        0.4584119160
 C          0.6814848964        0.1991737984        0.9935392774
 C          0.5267160027        0.6673854987        2.2962191519
 C          1.4060997947        1.5919418163        2.8240234284
 C          2.4736901972        2.0523723728        2.0726980352
 C          2.6361273172        1.5923396811        0.7721856103
 C          1.7427350416        0.6723132689        0.2394956319
 H          1.8640060503        0.3700924782       -0.7864727505
 N          3.7076570866        2.0355245054       -0.0142311038
 S          4.4341476826        1.0011727378       -1.1009787753
 O          5.7783866955        1.5199479811       -1.2459767143
 O          3.6681933197        0.9083021729       -2.3179839639
 C          4.4808671792       -0.5878825626       -0.2878806942
 C          5.0502130302       -0.6719949773        0.9674293903
 C          5.0805313332       -1.8992604807        1.6091496178
 C          4.5471666565       -3.0178411431        0.9872985873
 C          3.9882322916       -2.9197254328       -0.2772063028
 C          3.9524856555       -1.6933855234       -0.9220051154
 H          3.5207990974       -1.5703673108       -1.9026486208
 H          3.5762955425       -3.7912277823       -0.7610993646
 H          4.5677956610       -3.9720147931        1.4896874212
 H          5.5171342880       -1.9798083854        2.5914925148
 H          5.4637961649        0.2130046645        1.4224835824
 H          4.3708862922        2.6352329172        0.4525878908
 H          3.1645599488        2.7732320438        2.4826700914
 H          1.2668904793        1.9528417276        3.8319126763
 H         -0.3048042611        0.3045834987        2.8849375790
 H         -0.4531677842       -1.5796678090        1.2247011906
 C          0.1819871730       -1.5080272390       -0.7934224244
 C         -0.7740514579       -2.1466150853       -1.7543654408
 C          0.0041968514       -0.9344961788       -2.1659246687
 H          0.8078041863       -1.0482454151       -2.8797576695
 H         -0.5127183511        0.0087797126       -2.2521114853
 H         -0.5103679209       -3.1005423891       -2.1854535470
 H         -1.8306290391       -2.0312612973       -1.5609055532
 H          1.1090677528       -2.0426806448       -0.6088355923
