  62
        -98.94122399
 C          2.4795091703        1.3657242404       -0.0301370382
 C          3.2528118662        0.7326243147        0.9785844360
 C          4.1455852161       -0.3441552664        0.5395267717
 C          4.1987606980       -0.6734126030       -0.7634101217
 C          5.0806268000       -1.7262997737       -1.3778994751
 C          4.5109415223       -3.1488262964       -1.2916204165
 C          4.5404906988       -3.7779035071        0.1018594941
 H          4.3224056352       -4.8404979289       -0.0219696835
 H          5.5466118751       -3.6973893661        0.5144707497
 C          3.5279339154       -3.1795098015        1.0886499694
 H          2.7644562014       -2.6233629996        0.5384587659
 H          3.0117720826       -3.9856765746        1.6151447410
 C          4.1400328110       -2.2645594406        2.1496462456
 H          4.8004382220       -2.8459122013        2.7968723682
 H          3.3291350663       -1.8661071555        2.7648167934
 C          4.9319402627       -1.0794947316        1.5821992540
 H          5.1352329981       -0.3814009982        2.3978506095
 H          5.8802699757       -1.4237301223        1.1700428534
 H          3.4835842021       -3.1384811733       -1.6639427659
 H          5.1009752269       -3.7769687290       -1.9630545467
 H          5.1904174021       -1.4629447721       -2.4321453461
 H          6.0642422165       -1.6986026725       -0.9080571189
 O          3.4448296441       -0.0451707609       -1.7020183830
 C          2.5555621197        0.9699174519       -1.3656305529
 O          1.9219480106        1.4131770418       -2.3428931345
 O          3.2080515256        1.0672787085        2.1922281307
 C          1.5662925044        2.4923024999        0.4237767952
 C          0.1696212229        1.9860255538        0.6783398136
 C         -0.4510977605        2.1777883928        1.9067319203
 C         -1.7270061234        1.6912155514        2.1342183167
 C         -2.4094110012        1.0086352490        1.1432643480
 C         -1.7947145564        0.8047531134       -0.0854416180
 C         -0.5158054349        1.2921091652       -0.3100853387
 H         -0.0406920314        1.1301249482       -1.2669311047
 N         -2.4812698467        0.1160986256       -1.1036186222
 S         -3.0755731744       -1.4110088181       -0.7287213582
 O         -2.2935458124       -2.0403076357        0.3112249580
 O         -3.1537685121       -2.1135088741       -1.9909096855
 C         -4.7253048798       -1.0840380174       -0.1438124399
 C         -5.1100114601       -1.5087124021        1.1127762355
 C         -6.4003802990       -1.2417942276        1.5438918912
 C         -7.2779047682       -0.5597393463        0.7150102695
 C         -6.8766111137       -0.1426685361       -0.5455854386
 C         -5.5886697738       -0.4070963638       -0.9830229314
 H         -5.2374201839       -0.1045112183       -1.9554153685
 H         -7.5618121970        0.3873280193       -1.1873768224
 H         -8.2807237023       -0.3521400508        1.0533948904
 H         -6.7142607359       -1.5657022804        2.5231883609
 H         -4.3908063105       -2.0302836867        1.7241649446
 H         -1.9676021859        0.0867057573       -1.9735311144
 H         -3.4029547197        0.6276055825        1.3139984095
 H         -2.1960286194        1.8456392024        3.0938479985
 H          0.0804488423        2.6970393261        2.6906887247
 H          1.9832234488        2.8066023155        1.3936794122
 C          1.6086337291        3.7026559743       -0.5001341056
 C          0.4494498691        4.1660535062       -1.3258638095
 C          0.8704712833        4.9535963380       -0.1240209091
 H          1.3564596838        5.9063429852       -0.2687697847
 H          0.2347561684        4.9071999577        0.7473756754
 H          0.6643463823        4.5571359508       -2.3087367697
 H         -0.4738593250        3.6113213254       -1.2733506978
 H          2.5906155725        3.8332141802       -0.9441383294
