  62
        -98.94458903
 C         -1.5943188691       -1.4617848412        0.1842102889
 C         -1.7882858700       -0.4004254718        1.1074818595
 C         -3.0328446904        0.3636474074        0.9732959197
 C         -3.8941044501        0.0602443275       -0.0151473107
 C         -5.2362794004        0.6988787167       -0.2520898305
 C         -5.1862322811        2.0181858372       -1.0343881698
 C         -4.6395211020        3.2145423271       -0.2548560889
 H         -4.8614681125        4.1086795673       -0.8405826084
 H         -5.1735186023        3.3049227962        0.6915538810
 C         -3.1281712021        3.1560681179        0.0063013913
 H         -2.6797256414        2.4176531186       -0.6627481790
 H         -2.6793236626        4.1236649484       -0.2289268080
 C         -2.7478263121        2.8180874473        1.4477968312
 H         -1.6578111721        2.7869951280        1.5246985914
 H         -3.1051384328        3.6061554167        2.1144018516
 C         -3.2956587814        1.4744144267        1.9459026303
 H         -4.3650539114        1.5557186959        2.1425237001
 H         -2.7876836314        1.2229337365        2.8804803302
 H         -4.5908411008        1.8672302582       -1.9375601997
 H         -6.2075878712        2.2500002068       -1.3448092698
 H         -5.8218523498       -0.0205414333       -0.8285542411
 H         -5.7336395807        0.8625338758        0.7047477795
 O         -3.6422350792       -0.9183785518       -0.9210260012
 C         -2.5002325987       -1.7054223211       -0.8494203814
 O         -2.4342586580       -2.5597673006       -1.7535973919
 O         -0.9657147403       -0.1219881119        2.0218103798
 C         -0.3710086986       -2.3368104905        0.4005154586
 C          0.7794814313       -1.9562227992       -0.4996590009
 C          0.7133729617       -2.1091661984       -1.8809646411
 C          1.7953982117       -1.7711243073       -2.6726536406
 C          2.9528414912       -1.2605907069       -2.1099119701
 C          3.0252248508       -1.0955745476       -0.7326935600
 C          1.9447487309       -1.4547356488        0.0617079096
 H          2.0188170506       -1.3230223494        1.1308037797
 N          4.1800199404       -0.5704318373       -0.1240153495
 S          3.9939210393        0.7067299320        0.9472215213
 O          5.3147123889        1.2873996828        1.0529655319
 O          3.4076180994        0.2399764509        2.1757051909
 C          2.9070695988        1.8204831318        0.0779260417
 C          3.4827689884        2.6825154727       -0.8364592277
 C          2.6661453380        3.4871934127       -1.6127063173
 C          1.2888201181        3.4027393917       -1.4752793177
 C          0.7281638785        2.5322061908       -0.5545712183
 C          1.5387166288        1.7326723608        0.2367027114
 H          1.1162087091        1.0578686901        0.9652025609
 H         -0.3421720115        2.4608675400       -0.4461748385
 H          0.6469675078        4.0176372716       -2.0862250074
 H          3.1017336977        4.1693505234       -2.3248041369
 H          4.5579783484        2.7147838135       -0.9090497274
 H          4.9298917404       -0.3733165364       -0.7720065392
 H          3.7941340412       -0.9933910160       -2.7311578998
 H          1.7347974319       -1.8993305967       -3.7427407307
 H         -0.1957466680       -2.4854714188       -2.3241247215
 H         -0.0562222989       -2.1309746809        1.4334193588
 C         -0.6727734776       -3.8188006906        0.2840001277
 C          0.2393355229       -4.7979821004        0.9570911473
 C         -1.1414685174       -4.5681871617        1.4930764171
 H         -1.8830327968       -5.3421524221        1.3637955265
 H         -1.2447192179       -4.0155968123        2.4159470774
 H          0.4490702036       -5.7324745000        0.4599651467
 H          1.0728856825       -4.4011643902        1.5174929477
 H         -1.0993968972       -4.0998693103       -0.6696831226
