  62
        -98.94379342
 C         -1.8961701012       -1.2374597092        0.3782435195
 C         -1.9334927037       -0.2048219098       -0.5902202954
 C         -3.2733004581        0.2821452851       -0.9512464122
 C         -4.3563604952       -0.2800179827       -0.3845161026
 C         -5.7722136731        0.1582548542       -0.6200359197
 C         -6.2019992839        1.2173115024        0.4048930205
 C         -5.2040679053        2.3646301349        0.5635969289
 H         -5.6253302027        3.0639788125        1.2891757047
 H         -4.2781013623        1.9760556696        0.9940019478
 C         -4.8817028757        3.1110738075       -0.7385126132
 H         -5.6512969383        2.9052436324       -1.4834338036
 H         -4.9020303616        4.1848380862       -0.5401996469
 C         -3.5066021786        2.7933111619       -1.3290274208
 H         -2.7404299102        2.9111244791       -0.5581736376
 H         -3.2964240477        3.5266123305       -2.1122796509
 C         -3.3541097061        1.4000434612       -1.9523138352
 H         -4.1631039147        1.2249052949       -2.6642715494
 H         -2.4059884775        1.3839277931       -2.4974041353
 H         -6.3216868663        0.7311961243        1.3760539486
 H         -7.1723324454        1.6161999387        0.1036477895
 H         -6.4229930613       -0.7125092723       -0.5236627306
 H         -5.8618070461        0.5564413088       -1.6288081890
 O         -4.2806857586       -1.2920599418        0.5176264744
 C         -3.0534175125       -1.7845775965        0.9314566462
 O         -3.1231125450       -2.6949128397        1.7826814305
 O         -0.9074582826        0.2882909733       -1.1230774127
 C         -0.5653258851       -1.8021513517        0.8354506965
 C          0.3299065593       -0.7268014312        1.4038381524
 C         -0.2145338455        0.3674015415        2.0686463661
 C          0.5940563241        1.3686894559        2.5735494736
 C          1.9698329873        1.2939569374        2.4445269437
 C          2.5263039763        0.1922264934        1.8120942273
 C          1.7115057807       -0.8079747066        1.2965600887
 H          2.1633504487       -1.6536937239        0.8007013637
 N          3.9334278787        0.1204971135        1.6817148532
 S          4.5921980252        1.1248086277        0.5099558972
 O          6.0187091119        0.8958434363        0.5471793526
 O          4.1492194795        2.4721508067        0.7558354960
 C          3.9179923562        0.4987461544       -1.0173041700
 C          4.6834227333       -0.3536740257       -1.7895074916
 C          4.1185602283       -0.9226029258       -2.9191290442
 C          2.7976381485       -0.6486898449       -3.2431247415
 C          2.0411579900        0.2053025330       -2.4555399152
 C          2.6057273488        0.7889201496       -1.3322588791
 H          2.0341016291        1.4537355483       -0.7053022444
 H          1.0049851254        0.4045678909       -2.6781757869
 H          2.3523785942       -1.1052235876       -4.1135182562
 H          4.7037839673       -1.5845907417       -3.5372491002
 H          5.7022136614       -0.5465376920       -1.4937324333
 H          4.2697834671       -0.8202363881        1.5242904157
 H          2.6153079788        2.0752947335        2.8106837340
 H          0.1487140438        2.2166959704        3.0720801443
 H         -1.2888358644        0.4331520069        2.1759427926
 H         -0.7988986856       -2.5132453874        1.6421654128
 C          0.0904159392       -2.5566936165       -0.3064284883
 C          0.8789250220       -3.8048143022       -0.0485855022
 C         -0.4658605614       -3.8894593939       -0.7041489672
 H         -0.5169197708       -4.1361647905       -1.7537646612
 H         -1.2948578904       -4.2708956275       -0.1252878103
 H          1.7531266250       -3.9966290045       -0.6528934974
 H          0.9618060234       -4.1464516074        0.9724993891
 H          0.4241247183       -1.8965833665       -1.0989933384
