  62
        -98.93511213
 C         -0.8993347789       -1.4208049978        0.9151232618
 C         -1.6755400471       -1.1252273453       -0.2310774845
 C         -2.5141280135        0.0893289668       -0.1714051493
 C         -2.4533528569        0.8775714629        0.9147136741
 C         -3.1466041333        2.1908170464        1.1779606707
 C         -4.6241839032        2.2981896016        0.7731685139
 C         -4.8566201333        3.1964468625       -0.4429761231
 H         -5.8819744225        3.5716966203       -0.4098515579
 H         -4.1906754361        4.0588931065       -0.3697495360
 C         -4.6570485886        2.5216771175       -1.7988499763
 H         -5.4784160479        1.8246933112       -1.9799236590
 H         -4.7137598969        3.2978112115       -2.5657884048
 C         -3.3395574504        1.7624684150       -1.9698346918
 H         -3.1398533461        1.6759675882       -3.0405238046
 H         -2.5051832087        2.3204745991       -1.5435459317
 C         -3.3673865933        0.3428570582       -1.3832833400
 H         -2.9992493590       -0.3661820729       -2.1313914040
 H         -4.3981375611        0.0492559726       -1.1629575683
 H         -5.0343465990        1.3053880386        0.5960893983
 H         -5.1680984239        2.7278189949        1.6160588131
 H         -2.5687975296        2.9783259800        0.6855746489
 H         -3.0444263122        2.3554805502        2.2534722504
 O         -1.6540305503        0.5809404471        1.9797829506
 C         -0.8553157386       -0.5488104448        2.0027813562
 O         -0.1564484051       -0.6572485600        3.0306055730
 O         -1.6795336382       -1.8340705598       -1.2709466036
 C          0.0911779156       -2.5764529738        0.9351940968
 C          0.9214944109       -2.4792865411       -0.3213534714
 C          1.0536730825       -3.4851782463       -1.2669211141
 C          1.7726969232       -3.2536615455       -2.4279857165
 C          2.3467286340       -2.0209182438       -2.6784880929
 C          2.2263542897       -1.0098014398       -1.7303806521
 C          1.5527530315       -1.2623231022       -0.5495146397
 H          1.4587651398       -0.4794835946        0.1884657223
 N          2.7886843114        0.2578030528       -1.9376022250
 S          2.0909778286        1.6227350599       -1.2660162238
 O          0.6517847671        1.5367700669       -1.1888094579
 O          2.6178632234        2.7119328428       -2.0632855079
 C          2.8098108270        1.7084935636        0.3602051363
 C          4.1869886512        1.6908418298        0.4643344088
 C          4.7641433118        1.7570000559        1.7217913300
 C          3.9592366963        1.8370169814        2.8487259223
 C          2.5785868799        1.8597373588        2.7279411344
 C          1.9968078542        1.7989766992        1.4715805703
 H          0.9246458085        1.8018833156        1.3422577954
 H          1.9456165336        1.9079564241        3.5996590535
 H          4.4077748813        1.8813575038        3.8286151285
 H          5.8375004033        1.7417205299        1.8212445072
 H          4.7760028925        1.6281221666       -0.4352570738
 H          3.1484363407        0.4252964614       -2.8654899218
 H          2.8729793927       -1.8346618725       -3.6023062439
 H          1.8638044763       -4.0389014668       -3.1632763437
 H          0.5672684021       -4.4346160274       -1.1140949611
 H          0.7515741096       -2.3603135949        1.7917538651
 C         -0.5034296848       -3.9513942293        1.1879734635
 C         -1.7726582765       -4.1035576541        1.9712399510
 C         -1.7475334989       -4.4395275101        0.5118266263
 H         -1.7968805571       -5.4808583484        0.2279945801
 H         -2.2332343983       -3.7732386378       -0.1822017029
 H         -1.8427358791       -4.9087765111        2.6871462595
 H         -2.2779742624       -3.1988839621        2.2780997625
 H          0.2674020721       -4.6922844751        1.3776979285
