  62
        -98.94593809
 C         -2.1114915877       -1.4933610595        0.0045163014
 C         -1.8342014636       -0.3766684880       -0.8205497389
 C         -2.8961135958        0.6378425106       -0.8953328136
 C         -4.0458952381        0.4427078705       -0.2244764150
 C         -5.1851128170        1.4184014789       -0.1728349813
 C         -5.0452476014        2.3724661918        1.0218426400
 C         -3.6622523631        3.0125642916        1.1435160630
 H         -2.9284818557        2.2362181775        1.3725656380
 H         -3.6924016931        3.6885449266        2.0007996567
 C         -3.2086250517        3.7858783469       -0.1024057921
 H         -2.7788209995        4.7379836934        0.2154299061
 H         -4.0704801997        4.0142330634       -0.7305574037
 C         -2.1443425629        3.0718068776       -0.9377666496
 H         -1.3262993294        2.7498587245       -0.2887542170
 H         -1.7386523963        3.7909714464       -1.6543101120
 C         -2.6298014780        1.8549468642       -1.7354767614
 H         -1.8341229459        1.5687212019       -2.4294322253
 H         -3.5126559870        2.1228792821       -2.3194019791
 H         -5.2448103075        1.8114068624        1.9378521450
 H         -5.8032413842        3.1526700324        0.9305789926
 H         -5.2156063349        1.9843805569       -1.1017927825
 H         -6.1150507735        0.8564312849       -0.0703367393
 O         -4.2853765521       -0.6584532934        0.5332452861
 C         -3.3211260273       -1.6410016692        0.6833039733
 O         -3.6540868531       -2.5809241568        1.4334809509
 H          1.4767274642       -2.4718430002       -0.8967420914
 C          1.4002349704       -1.9798369009        0.0597918694
 C          0.1924635061       -1.9626493627        0.7364770654
 C          0.1271144628       -1.3094102059        1.9651214963
 C          1.2420380470       -0.6944907947        2.5006497663
 C          2.4463651943       -0.7065853332        1.8176987348
 C          2.5187895818       -1.3465318404        0.5884218080
 N          3.7293839598       -1.3445118382       -0.1225863515
 S          4.6248976335        0.0674102513       -0.1561610853
 O          5.3762461835        0.0055019823       -1.3908100436
 O          5.4137562180        0.1659893021        1.0477744789
 C          3.4461563734        1.4066164908       -0.2103614955
 C          3.5403303230        2.4291354455        0.7120766064
 C          2.6260346473        3.4686108996        0.6571036764
 C          1.6360601497        3.4660498891       -0.3133351939
 C          1.5551395121        2.4318750377       -1.2329320558
 C          2.4683214132        1.3919862084       -1.1846181843
 H          2.4138496865        0.5766617129       -1.8873388228
 H          0.7769211012        2.4156201496       -1.9783823789
 H          0.9214154625        4.2732250377       -0.3535115952
 H          2.6858223894        4.2740755755        1.3714134049
 H          4.3220356337        2.3880189292        1.4534338532
 H          3.6701314947       -1.7641019135       -1.0387126437
 H          3.3271098767       -0.2336686772        2.2208401650
 H          1.1753886962       -0.1967207985        3.4561866752
 H         -0.8174482942       -1.2888557280        2.4922413865
 C         -1.0671321983       -2.5821789473        0.1829498371
 H         -1.4706776035       -3.2715675670        0.9377577382
 C         -0.8695418889       -3.3413136077       -1.1120096271
 C         -0.3157786727       -4.7335400653       -1.0879048959
 C         -1.7613375105       -4.5068256814       -1.4118196977
 H         -2.0925316931       -4.6546418042       -2.4288745361
 H         -2.5020438135       -4.7692320088       -0.6704596773
 H         -0.0724925120       -5.1575178300       -0.1253956945
 H          0.3444842973       -5.0426084384       -1.8843323561
 H         -0.6014984533       -2.6971087734       -1.9414549181
 O         -0.7624158096       -0.2316057204       -1.4627786893
