  62
        -98.94433694
 C          2.2583145296        1.0476589201        0.2751351407
 C          2.4320084594       -0.0666122100       -0.5811444192
 C          3.3721999093       -1.0937601301       -0.1121645391
 C          3.9601326994       -0.9743004100        1.0910901008
 C          4.9165787593       -1.9535101701        1.7152289808
 C          6.3724696393       -1.7781509303        1.2614691207
 C          6.6669976492       -2.2282382905       -0.1700508793
 H          7.7528833192       -2.2537615506       -0.2803424093
 H          6.3014075691       -3.2457428604       -0.3120034792
 C          6.0826470992       -1.3129203305       -1.2549944093
 H          5.8198455294       -0.3482272104       -0.8150039494
 H          6.8413140692       -1.1211496706       -2.0170236294
 C          4.8564730191       -1.8802103804       -1.9703120792
 H          5.1379514590       -2.7778368905       -2.5253969591
 H          4.5042188691       -1.1361075804       -2.6891911792
 C          3.6879431791       -2.2290987902       -1.0391070491
 H          2.8024625691       -2.4159685401       -1.6519393390
 H          3.9143764391       -3.1317275202       -0.4718943590
 H          6.9971321393       -2.3640387803        1.9395960207
 H          6.6497879495       -0.7279409603        1.3777395806
 H          4.5878654592       -2.9719696201        1.5059304709
 H          4.8693308794       -1.7881960700        2.7937742008
 O          3.7256801496        0.0833333001        1.9114712607
 C          2.8994553997        1.1205568301        1.5170345307
 O          2.8138667999        2.0454861202        2.3493251906
 O          1.8473286093       -0.2237661800       -1.6873631891
 C          1.3671692597        2.2347726302       -0.0625848593
 C         -0.0819091703        1.9085500604        0.2100604708
 C         -0.7703891902        2.5371157905        1.2410415508
 C         -2.0913109302        2.2180068507        1.5024144409
 C         -2.7502000603        1.2658451907        0.7452128811
 C         -2.0662466005        0.6222831105       -0.2776122489
 C         -0.7458965505        0.9526928204       -0.5453774390
 H         -0.2137281506        0.4377174302       -1.3315165090
 N         -2.7214822507       -0.3565904094       -1.0474811588
 S         -3.5007519507       -1.5951887093       -0.2228994386
 O         -2.8924926107       -1.8423212292        1.0648029813
 O         -3.5317460409       -2.7096017094       -1.1450903985
 C         -5.1583377507       -0.9787125791       -0.0101824286
 C         -5.8547369507       -0.5870886791       -1.1369377986
 C         -7.1477671206       -0.1105594789       -0.9924312985
 C         -7.7206750605       -0.0368238087        0.2686369115
 C         -7.0098561405       -0.4374337587        1.3895408015
 C         -5.7153356206       -0.9143432789        1.2519244815
 H         -5.1224112305       -1.2317783289        2.0950792114
 H         -7.4568919404       -0.3801781486        2.3690273415
 H         -8.7272359305        0.3347386914        0.3785177216
 H         -7.7036376707        0.2016023811       -1.8617917385
 H         -5.3739438208       -0.6637430392       -2.0977875186
 H         -2.1376823708       -0.7360063596       -1.7800479788
 H         -3.7772089204        1.0091676209        0.9477245512
 H         -2.6136368301        2.7149383908        2.3057040509
 H         -0.2555438400        3.2662979705        1.8498299707
 H          1.6647868598        3.0316357902        0.6318823206
 C          1.5649541697        2.7370760000       -1.4796881694
 C          1.1489432298        4.1357813100       -1.8173148795
 C          2.6037138298        3.7823880599       -1.7470252095
 H          3.1683335997        3.7241067497       -2.6655169396
 H          3.1770043699        4.1438043699       -0.9054440896
 H          0.7115117398        4.3227777800       -2.7858654194
 H          0.7357946999        4.7390943602       -1.0232353295
 H          1.4259936295        1.9732829200       -2.2329707293
