  62
        -98.94327265
 C          2.5120059664        1.0211752523       -0.1602594440
 C          3.6567509800        0.8910037344        0.6622443708
 C          4.7142385501        0.0126016265        0.1507253827
 C          4.5600545118       -0.5929786247       -1.0410562731
 C          5.5594932793       -1.4986884439       -1.7082490687
 C          5.4938020120       -2.9575938735       -1.2358569645
 C          6.0363691825       -3.2111674186        0.1711786822
 H          6.1313018875       -4.2925862104        0.2876924680
 H          7.0369026011       -2.7859397919        0.2559920851
 C          5.1473384737       -2.6698204917        1.2994572702
 H          4.1470612807       -2.4673796947        0.9094688707
 H          5.0397193781       -3.4309313356        2.0755607429
 C          5.6803350068       -1.4065056260        1.9754920311
 H          6.6206598100       -1.6314576757        2.4836306576
 H          4.9569438070       -1.0906785444        2.7316816642
 C          5.9114572252       -0.2284028090        1.0200006567
 H          6.0744099999        0.6714628403        1.6182797362
 H          6.7961098446       -0.4071908498        0.4092962262
 H          4.4569376138       -3.2966783898       -1.2933248356
 H          6.0782250231       -3.5542255542       -1.9400391008
 H          5.3363537355       -1.4729063048       -2.7769728634
 H          6.5665009634       -1.1100264278       -1.5540378889
 O          3.4502183087       -0.4287903308       -1.8090108691
 C          2.3926384550        0.3625149855       -1.3838545961
 O          1.4317010512        0.4015553414       -2.1752934107
 H         -1.1207575040        2.2074823336       -0.8545491557
 C         -1.0655888820        1.3593413867       -0.1901531512
 C          0.1183622698        1.0714351637        0.4682882116
 C          0.1520426998       -0.0287126163        1.3222471130
 C         -0.9637987409       -0.8230011318        1.4974839854
 C         -2.1404761240       -0.5406114001        0.8245940262
 C         -2.1889903034        0.5578528518       -0.0210490044
 N         -3.3745108433        0.8453649108       -0.7150358983
 S         -4.8318970652        0.8328681590        0.1116285533
 O         -5.7092957683        1.6857334918       -0.6601160547
 O         -4.6554936426        1.1848681804        1.5014570106
 C         -5.3933393493       -0.8511298340       -0.0260910500
 C         -5.4741936081       -1.4107694758       -1.2861032143
 C         -5.9209163543       -2.7165095624       -1.4105780803
 C         -6.2800230201       -3.4355344622       -0.2801297372
 C         -6.1966725886       -2.8581720083        0.9775611417
 C         -5.7496896199       -1.5525524064        1.1089755108
 H         -5.6629599598       -1.0647927945        2.0669032434
 H         -6.4766170717       -3.4186930993        1.8550268591
 H         -6.6270518589       -4.4518491727       -0.3802988512
 H         -5.9866356669       -3.1689246087       -2.3870150257
 H         -5.1874418489       -0.8194180077       -2.1396900944
 H         -3.3080791180        1.6384873420       -1.3357690802
 H         -3.0138549191       -1.1588147568        0.9528339882
 H         -0.9193434764       -1.6731584294        2.1613575384
 H          1.0715058393       -0.2512774556        1.8467079118
 C          1.3684821973        1.9011855028        0.3116968713
 H          1.6671331275        2.2553972418        1.3094333353
 C          1.2068630565        3.0993958139       -0.5990465151
 C          0.5611700101        4.3508274104       -0.0853444432
 C          2.0366890327        4.3205116097       -0.3452194942
 H          2.4232402387        4.8664183826       -1.1927094795
 H          2.7064525883        4.2984142353        0.5018696346
 H         -0.0649490004        4.9225213857       -0.7540773326
 H          0.2256739261        4.3544285840        0.9408871386
 H          1.0351691063        2.8201934312       -1.6327193922
 O          3.7872951984        1.4801816220        1.7686942257
