  62
        -98.94188876
 C         -2.7738332437       -0.2777643412       -0.2522426759
 C         -2.0353286262        0.5481122416       -1.1344860098
 C         -2.0324374659        1.9850118821       -0.8233804062
 C         -2.7273392634        2.4400592863        0.2333479646
 C         -2.7720152632        3.8699910335        0.6858820774
 C         -1.6871293112        4.1643432444        1.7307982226
 C         -0.2885331293        3.6900169392        1.3338635252
 H          0.3960535460        4.0047598186        2.1251737329
 H         -0.2613948391        2.5971426822        1.3145799985
 C          0.2112381858        4.2264268251       -0.0144859461
 H         -0.3650368870        5.1068240301       -0.3029521098
 H          1.2507210667        4.5397618442        0.1025918730
 C          0.1796693983        3.1982350601       -1.1470005329
 H          0.6344163540        2.2681181894       -0.7941993142
 H          0.7877387711        3.5793892898       -1.9722815049
 C         -1.2108885113        2.8766065780       -1.7109398565
 H         -1.7441584013        3.8036850788       -1.9310563100
 H         -1.0753432950        2.3267451967       -2.6467675803
 H         -1.6679503139        5.2411179048        1.9106252089
 H         -1.9614569604        3.6685426233        2.6649521688
 H         -2.6462186305        4.5216280756       -0.1765985074
 H         -3.7506170033        4.0568287751        1.1317874159
 O         -3.4549994109        1.6252378694        1.0392083670
 C         -3.4687026197        0.2573688806        0.8376325801
 O         -4.1429894325       -0.3735251650        1.6770766402
 H         -0.2666977223       -1.4196371354       -1.1626400074
 C         -0.3145646769       -2.0201107453       -0.2663445472
 C         -1.5521778602       -2.3471127673        0.2689978137
 C         -1.5886616687       -3.1062476791        1.4324635064
 C         -0.4163724211       -3.5086381142        2.0502772529
 C          0.8151300592       -3.1437564205        1.5346670575
 C          0.8576191025       -2.3902926695        0.3704833909
 N          2.1110223061       -1.9328028747       -0.1241693328
 S          2.6096832968       -0.5894200725        0.7882431545
 O          2.9281248444       -1.0543593476        2.1149414799
 O          1.6249212127        0.4671849438        0.7044417760
 C          4.1024095254       -0.1179474889       -0.0639817863
 C          5.2536688939       -0.8451077496        0.1704661994
 C          6.4092944549       -0.5070811875       -0.5150809763
 C          6.3936402672        0.5448813428       -1.4191532198
 C          5.2301308795        1.2649574420       -1.6435672710
 C          4.0700621197        0.9309345271       -0.9621273388
 H          3.1443502386        1.4670179866       -1.1014784525
 H          5.2200882678        2.0834166857       -2.3453114620
 H          7.2943528058        0.8069325359       -1.9514372158
 H          7.3165588620       -1.0632898786       -0.3430146878
 H          5.2182643645       -1.6482256526        0.8875037573
 H          2.0051948665       -1.6118612430       -1.0804820191
 H          1.7345127120       -3.4057458794        2.0320317295
 H         -0.4628719035       -4.0940683870        2.9561915985
 H         -2.5451313663       -3.3544373561        1.8698220135
 C         -2.8123908068       -1.7977196929       -0.3563095432
 H         -3.6628406812       -2.1190969640        0.2595964229
 C         -3.0181435639       -2.3123938296       -1.7663758484
 C         -3.5436277987       -3.7020471342       -1.9588919551
 C         -4.4122400373       -2.5217093383       -2.2723716759
 H         -4.6233788227       -2.2931803090       -3.3060978590
 H         -5.2268585984       -2.2940763718       -1.6000883108
 H         -3.1578468998       -4.2887151748       -2.7782714673
 H         -3.7714769835       -4.2773181672       -1.0742671992
 H         -2.2847944193       -1.9469700129       -2.4722764058
 O         -1.3999130231        0.1343485275       -2.1426444948
