  62
        -98.92924825
 C         -2.1341908414       -0.7115384901       -0.1565619564
 C         -3.4531316613       -1.2270715819       -0.1786922684
 C         -4.5562406929       -0.2574507415       -0.0458064355
 C         -4.2602726259        1.0465161829        0.0966813152
 C         -5.1973949072        2.2183977281        0.2454977689
 C         -6.4204260070        2.2443750208       -0.6843326497
 C         -7.7421832214        1.9861869591        0.0410833149
 H         -7.7158356289        2.5006085813        1.0039123758
 H         -8.5525573259        2.4285136679       -0.5425449966
 C         -8.0841346031        0.5140439268        0.2638938833
 H         -8.3572390030        0.0582631319       -0.6902852962
 H         -8.9661833676        0.4737339883        0.9072541417
 C         -6.9749761863       -0.3265798402        0.8995542469
 H         -6.4762028773        0.2331008543        1.6899700924
 H         -7.4421666179       -1.1944900630        1.3696989166
 C         -5.9399402482       -0.8446330102       -0.1101221869
 H         -5.7891046320       -1.9187588827        0.0362845080
 H         -6.3232313478       -0.7321987990       -1.1285539671
 H         -6.2856616902        1.5286500203       -1.4938999279
 H         -6.4727997272        3.2362091556       -1.1363695857
 H         -5.5222819745        2.2719228498        1.2875631881
 H         -4.5767243234        3.0998098512        0.0684818403
 O         -2.9734721915        1.4947023248        0.1564142551
 C         -1.8825723998        0.6452551413        0.0447240957
 O         -0.7840609410        1.2234889327        0.1458291202
 H          1.6427027615       -0.9262457998       -0.6651477870
 C          1.3693102686       -1.0456956236        0.3686110701
 C          0.0812506386       -1.4193136275        0.7174383785
 C         -0.2390461341       -1.5395294159        2.0672635379
 C          0.7018983384       -1.2711949175        3.0414620571
 C          1.9817421186       -0.8808293731        2.6895201724
 C          2.3163376793       -0.7695365099        1.3450500025
 N          3.6320314377       -0.4292039705        0.9777200872
 S          3.9638365306        0.5336150394       -0.3666803818
 O          3.4171542596        1.8618734436       -0.1977812464
 O          3.5925697089       -0.1730141267       -1.5656568976
 C          5.7434060444        0.5896608187       -0.2411945986
 C          6.4628809141       -0.5252876303       -0.6279449134
 C          7.8436532588       -0.5049878472       -0.5145895244
 C          8.4795745508        0.6237877191       -0.0189704204
 C          7.7449656853        1.7359425255        0.3630910530
 C          6.3630601012        1.7211874360        0.2533501587
 H          5.7514415738        2.5647877696        0.5308090283
 H          8.2419070092        2.6131642081        0.7450716310
 H          9.5545806387        0.6378851654        0.0673933682
 H          8.4182996607       -1.3668108461       -0.8134048514
 H          5.9261282611       -1.3754251209       -1.0150918679
 H          4.1666978633       -0.0910911474        1.7674984177
 H          2.7155487397       -0.6618972698        3.4507036633
 H          0.4370432947       -1.3589062045        4.0846300265
 H         -1.2442065866       -1.8315632241        2.3410197589
 C         -0.9906772488       -1.6982533282       -0.3055982426
 H         -1.4407787048       -2.6771776282       -0.0681421357
 C         -0.4474063359       -1.8031136000       -1.7225772194
 C         -1.3149117015       -1.5346498994       -2.9145641264
 C         -0.1974503838       -0.5966184162       -2.5749549971
 H          0.6844248471       -0.5856978184       -3.1995551126
 H         -0.4381722870        0.3691764346       -2.1574484807
 H         -1.2086325583       -2.1713942926       -3.7798102873
 H         -2.3281266729       -1.2064879661       -2.7334864541
 H          0.2640650818       -2.6176358738       -1.8226616660
 O         -3.7027716491       -2.4566760002       -0.2982000075
