  62
        -98.93242684
 C          1.9666039379        1.7445074724       -0.0763004184
 C          2.6385891157        1.0377106728        0.9559968286
 C          3.7437836945        0.1541801698        0.5595548693
 C          4.0955254178        0.0921876369       -0.7354248429
 C          5.1901201540       -0.7281948616       -1.3703333813
 C          5.3269653929       -2.1874370673       -0.9125788607
 C          4.0112399973       -2.8714567970       -0.5115281003
 H          3.1587712743       -2.2625479460       -0.8199189638
 H          3.9322957590       -3.8247219576       -1.0380698355
 C          3.9188772094       -3.1566591635        0.9898025699
 H          4.8817158247       -3.5434412703        1.3311285194
 H          3.1747041988       -3.9404856367        1.1508837236
 C          3.5189594804       -1.9678322162        1.8632875436
 H          2.4675571913       -1.7191664872        1.6914932238
 H          3.6083404551       -2.2736279734        2.9085170267
 C          4.3396619414       -0.6850350007        1.6522144675
 H          4.2692459377       -0.0873817739        2.5649883893
 H          5.3859997206       -0.9116461707        1.4624974263
 H          6.0222998216       -2.2425813820       -0.0760921030
 H          5.7837224198       -2.7357306177       -1.7382097029
 H          4.9820641483       -0.6977669731       -2.4425772335
 H          6.1412819289       -0.2120460552       -1.2114000550
 O          3.4794478284        0.8473449234       -1.6846076252
 C          2.3969898460        1.6783310016       -1.3998541640
 O          1.9725233287        2.2804588611       -2.4024700901
 H          0.0594239583        0.0056038425       -0.3203273373
 C         -0.4577353773        0.3433274177        0.5667310938
 C         -0.2108356219        1.6089196959        1.0785743421
 C         -0.8799825805        2.0031026215        2.2322607696
 C         -1.7673358070        1.1496161961        2.8615747129
 C         -2.0199020125       -0.1068574162        2.3402522185
 C         -1.3583339068       -0.5101519310        1.1870871793
 N         -1.5921093427       -1.7812808193        0.6173131208
 S         -2.3583615995       -1.7994690658       -0.8719508135
 O         -2.5408109656       -3.1961970207       -1.1965262954
 O         -1.6098740084       -1.0053196758       -1.8108214306
 C         -3.9441210155       -1.0483303556       -0.5462358210
 C         -5.0305693954       -1.8620533203       -0.2898937382
 C         -6.2442555944       -1.2778222365        0.0351395273
 C         -6.3471599939        0.1031751449        0.1088000524
 C         -5.2461882342        0.9062022517       -0.1471132672
 C         -4.0304209940        0.3280740950       -0.4770909491
 H         -3.1565192297        0.9223856846       -0.6890829026
 H         -5.3252436307        1.9798752222       -0.0912014438
 H         -7.2909689325        0.5575142633        0.3656559412
 H         -7.1025341315       -1.8998898419        0.2316410679
 H         -4.9035802070       -2.9301772124       -0.3625022275
 H         -2.0644905637       -2.4221321948        1.2406526273
 H         -2.7116503132       -0.7776024152        2.8275182241
 H         -2.2691609627        1.4648762302        3.7633520409
 H         -0.6810525410        2.9803498712        2.6467260901
 C          0.7553547080        2.5406807103        0.3861106585
 H          1.1172631153        3.2515373330        1.1488300164
 C          0.0676467492        3.3544521113       -0.6976543830
 C         -0.9440632190        2.7611584491       -1.6268922748
 C         -1.3774774183        3.7417727220       -0.5806336349
 H         -1.6652371906        4.7322020238       -0.8989619665
 H         -1.9361429421        3.3660488886        0.2634609638
 H         -1.1899841690        1.7155722616       -1.5121409218
 H         -0.9136862326        3.0730645660       -2.6598461007
 H          0.7352841100        4.0883181985       -1.1342381825
 O          2.3187530827        1.1482993939        2.1695748093
