  62
        -98.92951548
 C          1.0824335484        1.2378463570        0.3191025696
 C          1.5440318808        0.0948683344        1.0108581171
 C          2.6575927999       -0.6375911441        0.3926329678
 C          3.1307413732       -0.2221318357       -0.7962498021
 C          4.2993562484       -0.8211943071       -1.5262872274
 C          5.6217172576       -0.3698282064       -0.8738976112
 C          6.4253478019       -1.5003401924       -0.2311915130
 H          6.9090052212       -2.0833975096       -1.0176721718
 H          7.2123072430       -1.0414745973        0.3710648250
 C          5.6269062018       -2.4691748067        0.6460831896
 H          5.1000324579       -3.1870980653        0.0154941380
 H          6.3512604523       -3.0405790867        1.2304426491
 C          4.6167037772       -1.8267934990        1.6051729706
 H          4.8993171754       -0.7979717558        1.8290918570
 H          4.6456474127       -2.3779609648        2.5473045569
 C          3.1570542491       -1.8583356582        1.1150058058
 H          2.9973552087       -2.7401595356        0.4870491392
 H          2.4993991524       -1.9563311396        1.9842849133
 H          6.2500804482        0.1130146470       -1.6237309454
 H          5.3904349007        0.3876602160       -0.1222034008
 H          4.2163465186       -1.9060860758       -1.5192144398
 H          4.2461385697       -0.4762776608       -2.5592596208
 O          2.6345236838        0.8583355340       -1.4523958875
 C          1.5896435341        1.6075916955       -0.9265550014
 O          1.2161445936        2.5458988637       -1.6520661795
 H         -0.8610265978       -0.0548849101       -0.3941725579
 C         -1.4978234206        0.7812041428       -0.6346628832
 C         -1.2230730242        2.0273438289       -0.0753691983
 C         -2.0504728164        3.0827196387       -0.4369623898
 C         -3.0896714597        2.8904588135       -1.3345223895
 C         -3.3513196736        1.6497930436       -1.8812846929
 C         -2.5359300195        0.5806990710       -1.5256696350
 N         -2.7426285270       -0.6983362563       -2.0581618242
 S         -2.3056187677       -2.0718793186       -1.2181840933
 O         -0.8711732282       -2.2188930916       -1.1933353857
 O         -3.0347950785       -3.1311048047       -1.8841638751
 C         -2.9625258508       -1.8459776902        0.4252660883
 C         -2.1297798936       -1.6373959390        1.5049310761
 C         -2.6944107734       -1.4293745396        2.7542537838
 C         -4.0718583838       -1.4364905356        2.9035683693
 C         -4.8959229411       -1.6575592813        1.8099205982
 C         -4.3382463318       -1.8619351580        0.5592318247
 H         -4.9436718300       -2.0499471835       -0.3124605122
 H         -5.9673299193       -1.6687075209        1.9286494623
 H         -4.5038273819       -1.2714919644        3.8779667334
 H         -2.0445797728       -1.2567842921        3.5974671030
 H         -1.0589834819       -1.6300632813        1.3703711322
 H         -3.5885911667       -0.8187782034       -2.5936503350
 H         -4.1609059881        1.5085857734       -2.5802555881
 H         -3.7102456158        3.7305352337       -1.6075883867
 H         -1.8989570352        4.0718789924       -0.0462873188
 C         -0.0730610191        2.0376153584        0.9070447646
 H         -0.4086286320        1.4420122651        1.7746570135
 C          0.4928737206        3.3308228537        1.4758086535
 C          0.5696845764        4.6402455685        0.7569088531
 C         -0.3057427171        4.5012024942        1.9682032516
 H          0.0238490819        4.9765533697        2.8806063393
 H         -1.3768215418        4.4894907652        1.8553598946
 H          1.4835836429        5.2093568735        0.8485452590
 H          0.1318661961        4.7010451797       -0.2257111292
 H          1.3624602589        3.0863791169        2.0834516377
 O          1.0375014034       -0.3013361202        2.0972517097
