  62
        -98.94049166
 C         -2.4673735046       -1.2218643584        0.0506441088
 C         -2.4593890105       -0.0175018219       -0.6930003931
 C         -3.7784184658        0.5678209164       -0.9660434201
 C         -4.8909473487       -0.0592801944       -0.5419340353
 C         -6.3067941646        0.3969703186       -0.7693906684
 C         -6.8019278119        1.4307434191        0.2512889360
 C         -6.2053971221        2.8306368668        0.1005324351
 H         -6.3239419342        3.1659640811       -0.9301924722
 H         -6.7943789452        3.4996787259        0.7309390223
 C         -4.7301636632        2.9375691718        0.5117446427
 H         -4.4556200002        2.0699359930        1.1160840874
 H         -4.5891630471        3.8210087188        1.1384411650
 C         -3.7519999509        3.0523790207       -0.6576668709
 H         -2.7359679390        3.0806467743       -0.2546276831
 H         -3.9279023128        3.9882591986       -1.1928617570
 C         -3.8281945233        1.8945298957       -1.6616151742
 H         -4.7326149140        1.9768047935       -2.2641965700
 H         -2.9592221221        1.9556143327       -2.3217651018
 H         -7.8856993590        1.5066953718        0.1378404234
 H         -6.5983361069        1.0542048643        1.2562865357
 H         -6.4029178698        0.8029736226       -1.7766528363
 H         -6.9353687199       -0.4925731610       -0.6908344730
 O         -4.8545003270       -1.2297062989        0.1493910509
 C         -3.6486062866       -1.8258797956        0.4806269409
 O         -3.7588275759       -2.8732921264        1.1497199821
 O         -1.4096083079        0.5407653358       -1.1088876815
 C         -1.1569887403       -1.9047785767        0.3960055117
 C         -0.2385577276       -0.9424717505        1.1091552267
 C         -0.7391771554       -0.1975884723        2.1741035855
 C          0.0654842567        0.7000259440        2.8473634412
 C          1.3861185034        0.8743773394        2.4722968734
 C          1.9020602857        0.1231497921        1.4236146561
 C          1.0927701065       -0.7871980701        0.7567233798
 H          1.5134527306       -1.3521773731       -0.0568341330
 N          3.2593278456        0.2468561603        1.0650602319
 S          3.7050894694        0.3648261388       -0.5600454679
 O          3.1576196969        1.5698492769       -1.1452461162
 O          3.4074773344       -0.8726928558       -1.2324830491
 C          5.4710187265        0.5277260185       -0.3670663193
 C          6.2045554004       -0.6082760677       -0.0818032328
 C          7.5740131147       -0.4949328793        0.0956809268
 C          8.1844818179        0.7457898710       -0.0145890438
 C          7.4358943181        1.8765198341       -0.3037368141
 C          6.0650498174        1.7699297629       -0.4806429681
 H          5.4445234307        2.6200981034       -0.7146964472
 H          7.9137641727        2.8389054404       -0.3923393357
 H          9.2508186515        0.8313058069        0.1229169575
 H          8.1597239700       -1.3723146086        0.3181179321
 H          5.6881943702       -1.5515223017       -0.0145954183
 H          3.7105858574        0.9951057164        1.5765117485
 H          2.0120885233        1.5854235541        2.9905846578
 H         -0.3397796563        1.2770675556        3.6652406588
 H         -1.7750854547       -0.3264908983        2.4591787366
 H         -1.4099547827       -2.7186973044        1.0919516637
 C         -0.5452449773       -2.5066758220       -0.8521294066
 C          0.3112831940       -3.7323678172       -0.7597461133
 C         -1.0613129114       -3.8202298220       -1.3544078079
 H         -1.1563471656       -3.9632593882       -2.4203586415
 H         -1.8408457906       -4.2966696650       -0.7774533875
 H          1.1649796604       -3.8102469984       -1.4162952266
 H          0.4664602022       -4.1596330805        0.2194624669
 H         -0.2824418580       -1.7567672369       -1.5909903677
