  62
        -98.94431888
 C          2.0540000572        1.3803337863        0.0395853771
 C          2.3463079143        0.4217658379       -0.9606961197
 C          3.7000728130       -0.1530197195       -0.9271788759
 C          4.5730270940        0.2500040058        0.0128309094
 C          5.9592732184       -0.2955187190        0.1920974074
 C          5.9694711989       -1.4759011716        1.1734466942
 C          4.9089621541       -2.5361858677        0.8761713112
 H          5.0319526685       -3.3342269218        1.6116594731
 H          3.9177222380       -2.1048234866        1.0353398475
 C          4.9824239058       -3.1292237420       -0.5378839841
 H          5.9624856855       -2.9299805071       -0.9728915977
 H          4.8731902254       -4.2136366784       -0.4683474204
 C          3.8943153380       -2.6330392477       -1.4919889208
 H          2.9149863060       -2.7463243195       -1.0193622329
 H          3.9043616530       -3.2716871314       -2.3794592069
 C          4.0364112613       -1.1822311930       -1.9698293475
 H          3.3227305862       -1.0299090941       -2.7847038950
 H          5.0427848436       -1.0208447278       -2.3609967381
 H          5.7943256138       -1.0908077975        2.1806744261
 H          6.9600181132       -1.9339029013        1.1523821522
 H          6.3490144550       -0.6095045566       -0.7742412453
 H          6.5928842873        0.4998404598        0.5882015166
 O          4.2656849524        1.1828948529        0.9482641365
 C          3.0091680099        1.7590784821        0.9904072953
 O          2.8638716301        2.5946054652        1.9046805592
 O          1.5366706171        0.0435373832       -1.8509223753
 C          0.7085478215        2.0800159694        0.1660249123
 C         -0.3203374693        1.1935766147        0.8268505186
 C         -0.9073262107        1.5585270204        2.0326067569
 C         -1.8650589915        0.7525676296        2.6239465093
 C         -2.2563946336       -0.4314921458        2.0257458373
 C         -1.6730795834       -0.8051967113        0.8216286017
 C         -0.7204309503        0.0083149506        0.2261824786
 H         -0.2685187072       -0.2890976820       -0.7083475044
 N         -2.0678822141       -2.0042405998        0.2002333695
 S         -3.7142536046       -2.2495512288        0.0191327289
 O         -4.2632434317       -2.7602732931        1.2509895739
 O         -3.8530677964       -3.1082559473       -1.1359269069
 C         -4.3826262913       -0.6290287291       -0.3138886523
 C         -5.2653874059       -0.0496490315        0.5741518093
 C         -5.7323045956        1.2294013796        0.3163311241
 C         -5.3059903368        1.9047737155       -0.8163813289
 C         -4.4209017203        1.3072864800       -1.7007538563
 C         -3.9518151435        0.0287347219       -1.4491281281
 H         -3.2648115687       -0.4637401066       -2.1188703273
 H         -4.0907471631        1.8331559191       -2.5822418053
 H         -5.6649304235        2.9026111883       -1.0131850019
 H         -6.4222891628        1.6956278963        1.0009683692
 H         -5.5675466687       -0.6090408811        1.4444097046
 H         -1.5774335661       -2.1849049725       -0.6638565073
 H         -2.9962390311       -1.0752351153        2.4735217182
 H         -2.3106324460        1.0484350267        3.5613108061
 H         -0.5980541669        2.4754120122        2.5128411926
 H          0.8859079599        2.9362664854        0.8298844175
 C          0.1857051758        2.6034103140       -1.1591493643
 C         -0.8436170594        3.6913742474       -1.1528767113
 C          0.5567940474        3.9862945054       -1.5982867674
 H          0.7418840801        4.1610587739       -2.6475852666
 H          1.1910501905        4.5654497667       -0.9426469623
 H         -1.6241830515        3.6656115446       -1.8971441013
 H         -1.1616850932        4.0732806606       -0.1948162396
 H          0.1128725008        1.8420472555       -1.9240106462
