  62
        -98.94287580
 C          2.4961629163        0.2043330561       -0.2383087062
 C          2.3230901622        1.4068229130       -0.9677340733
 C          1.7471614094        2.5358387378       -0.2321708875
 C          1.4123940090        2.3840075975        1.0615869796
 C          0.7830389660        3.4299585699        1.9408222899
 C         -0.7425775089        3.5071836052        1.7865154378
 C         -1.2308332031        4.1786920515        0.5017691942
 H         -2.2939770296        4.3881531324        0.6359468515
 H         -0.7215671452        5.1351414071        0.3749930782
 C         -1.0552287904        3.3231844679       -0.7605160016
 H         -0.9102478607        2.2803303912       -0.4685489213
 H         -1.9709836028        3.3669380843       -1.3554677495
 C          0.0937446861        3.7575208170       -1.6713607999
 H         -0.1184854055        4.7475302735       -2.0823602548
 H          0.1553048288        3.0519637825       -2.5039204123
 C          1.4668003491        3.7997137576       -0.9889198244
 H          2.2306974382        3.8977127041       -1.7646355003
 H          1.5304168727        4.6607052236       -0.3237882230
 H         -1.1458239711        2.4920248954        1.8402361331
 H         -1.1308844598        4.0694311730        2.6394277113
 H          1.0129269845        3.1511998126        2.9715700898
 H          1.2254881452        4.4054373462        1.7354103771
 O          1.6256134715        1.2270852141        1.7394022887
 C          2.1110623608        0.0965870456        1.1002224932
 O          2.1710577486       -0.9085664788        1.8360937053
 O          2.6223914256        1.5241478763       -2.1875481286
 C          2.9404572591       -1.0279101218       -1.0101032332
 C          1.9719230093       -2.1471277793       -0.7163401602
 C          2.3429799289       -3.4294818391       -0.3384911549
 C          1.3773140730       -4.3676336927       -0.0129444390
 C          0.0357183175       -4.0356970231       -0.0173581729
 C         -0.3455536182       -2.7549922369       -0.4018818896
 C          0.6172002178       -1.8452110671       -0.7980552366
 H          0.3134810992       -0.8560578122       -1.1068283318
 N         -1.7015123947       -2.3533141433       -0.3952609341
 S         -2.1069708788       -1.0505117398        0.6112333763
 O         -1.2155488333        0.0551795232        0.3900665505
 O         -2.2317464000       -1.5270144186        1.9748815137
 C         -3.7245292448       -0.6584669114       -0.0268142465
 C         -4.8418033827       -1.2373374603        0.5434164659
 C         -6.0903391827       -0.9496694841        0.0147203270
 C         -6.1993642766       -0.0938791606       -1.0708159409
 C         -5.0686794664        0.4813255485       -1.6313861155
 C         -3.8178024851        0.1964568188       -1.1074566805
 H         -2.9124894962        0.6258731390       -1.5052031768
 H         -5.1559820280        1.1490794551       -2.4733272035
 H         -7.1715275885        0.1293362921       -1.4810550192
 H         -6.9713406033       -1.3924194668        0.4506424407
 H         -4.7111456987       -1.8850572771        1.3952116470
 H         -2.3106338398       -3.1224926721       -0.1421435125
 H         -0.7117311162       -4.7541948489        0.2858367062
 H          1.6776412838       -5.3621239500        0.2813708456
 H          3.3864006773       -3.6902335774       -0.2689620687
 H          2.8206840411       -0.7394410781       -2.0687170042
 C          4.4003442212       -1.4135690283       -0.8317209922
 C          5.4124433247       -0.4123944146       -0.3631079163
 C          5.0288644349       -1.5592003206        0.5206362043
 H          5.7470874841       -2.3525179054        0.6688824244
 H          4.4071371286       -1.3632922884        1.3798663971
 H          6.3896908046       -0.4173335268       -0.8222255125
 H          5.0554271255        0.5734536775       -0.1018216794
 H          4.7348960841       -2.1050371753       -1.5991460967
