  62
        -98.94493917
 C          2.1882083975        0.9594986754        0.5385141033
 C          2.3298639391        0.1795201595       -0.6350954421
 C          3.1106828549       -1.0556481419       -0.4864819393
 C          3.5880145940       -1.4064038223        0.7212778453
 C          4.3808191947       -2.6461183196        1.0356090154
 C          5.8829570232       -2.5161531111        0.7476600540
 C          6.2643003980       -2.5140335006       -0.7332243938
 H          7.3475509309       -2.6400098145       -0.7845967482
 H          5.8125677595       -3.3764898822       -1.2243326228
 C          5.8806391533       -1.2316930021       -1.4847872907
 H          6.7235455377       -0.9022345510       -2.0963127189
 H          5.6757562618       -0.4353260815       -0.7656829208
 C          4.6766195772       -1.3783700738       -2.4154426913
 H          4.4702176247       -0.4043617813       -2.8660306528
 H          4.9171001801       -2.0773401623       -3.2195012178
 C          3.3958742548       -1.8581190804       -1.7197513526
 H          2.5562907244       -1.7190288923       -2.4057495153
 H          3.4733989303       -2.9176426641       -1.4757004659
 H          6.3798932210       -3.3623640037        1.2276223657
 H          6.2509071735       -1.6026553439        1.2203606084
 H          4.2498173852       -2.8364438639        2.1031611626
 H          3.9733949910       -3.4917022094        0.4803704115
 O          3.3760082830       -0.6585472826        1.8377410382
 C          2.6874055655        0.5427856443        1.7716290333
 O          2.5761130614        1.1313008051        2.8674134040
 H         -0.2119751421        0.5177842154        1.6051309749
 C         -0.7078387537        1.0359429932        0.7922343376
 C         -0.0056520263        2.0049661180        0.0851947392
 C         -0.6503088048        2.6627765012       -0.9530385038
 C         -1.9570384051        2.3418231634       -1.2797303345
 C         -2.6492143950        1.3728051573       -0.5774816667
 C         -2.0158707455        0.7136803885        0.4685131125
 N         -2.7166550568       -0.2637398054        1.2007809772
 S         -3.4126078957       -1.5266663550        0.3357537496
 O         -3.5070321255       -2.6211775358        1.2780266662
 O         -2.6939935746       -1.7928557368       -0.8889598382
 C         -5.0519270118       -0.9349504035       -0.0289027374
 C         -5.8573574335       -0.5572661178        1.0277558293
 C         -7.1379715675       -0.0995428220        0.7620405561
 C         -7.5898673884       -0.0308638014       -0.5475996128
 C         -6.7700867326       -0.4170732715       -1.5969284445
 C         -5.4872286116       -0.8747260134       -1.3381884183
 H         -4.8114794854       -1.1799691665       -2.1213020243
 H         -7.1228946374       -0.3629995419       -2.6142930149
 H         -8.5869097481        0.3261779691       -0.7517380622
 H         -7.7783699398        0.2016395419        1.5752943559
 H         -5.4685042253       -0.6304684812        2.0296608187
 H         -2.1898561090       -0.6304898636        1.9809505179
 H         -3.6649981103        1.1184004103       -0.8323300509
 H         -2.4434031884        2.8547109538       -2.0953476043
 H         -0.1267161847        3.4177234667       -1.5156776298
 C          1.4241349661        2.2715305156        0.4908934746
 H          1.4176504108        2.6562857829        1.5212485684
 C          2.1380530203        3.2671204945       -0.3982986426
 C          1.9739462731        4.7377579954       -0.1634511341
 C          3.2698481866        4.0650248711        0.1733564497
 H          4.1308030678        4.2579030138       -0.4489314836
 H          3.5116013777        3.9072754689        1.2147099136
 H          1.3368540572        5.0452538896        0.6518264439
 H          1.9477082004        5.3968944875       -1.0178777841
 H          2.2391521613        2.9169226461       -1.4188825015
 O          1.8345462580        0.4944877439       -1.7476130486
