  62
        -98.94051705
 C          2.1539763985        1.1151617953        0.4368684300
 C          2.4605349695        0.2690790979       -0.6567826470
 C          3.2490496292       -0.9294228938       -0.3348387536
 C          3.5730637165       -1.2032530019        0.9408717376
 C          4.3308548025       -2.4087394124        1.4269833151
 C          5.8564543769       -2.2709539563        1.3296736901
 C          6.4268576431       -2.3429049983       -0.0872873850
 H          7.5089037910       -2.4519744468        0.0083246877
 H          6.0517056043       -3.2387186962       -0.5831341281
 C          6.1294292229       -1.1102147518       -0.9523258091
 H          7.0409215378       -0.7974790661       -1.4664725971
 H          5.8226292628       -0.2810864074       -0.3106088723
 C          5.0591825680       -1.3297336848       -2.0215647247
 H          5.4107194282       -2.0673464548       -2.7462957162
 H          4.9032347372       -0.3859541526       -2.5503113323
 C          3.7038710292       -1.7941158395       -1.4721224291
 H          2.9618254012       -1.7116142646       -2.2703902898
 H          3.7612398829       -2.8362161089       -1.1578536920
 H          6.2938501708       -3.0819539311        1.9163624125
 H          6.1516362644       -1.3275395099        1.7946213476
 H          4.0067586524       -3.2915429287        0.8747128081
 H          4.0621415218       -2.5394099294        2.4775319629
 O          3.2134066061       -0.3938192488        1.9721242511
 C          2.5201299902        0.7821289381        1.7447994255
 O          2.2900304456        1.4450169591        2.7759077761
 O          2.1012904408        0.4770427594       -1.8456357515
 C          1.3710828594        2.4129774665        0.2971864913
 C         -0.1049238278        2.1185631093        0.3711603100
 C         -0.9148864776        2.7110311765        1.3315959711
 C         -2.2576402896        2.3846999784        1.4177598337
 C         -2.8165320697        1.4609475949        0.5526598319
 C         -2.0133500402        0.8610703586       -0.4084872830
 C         -0.6721294489        1.1960817598       -0.4985541948
 H         -0.0503118055        0.7251558556       -1.2464417697
 N         -2.5721850728       -0.1007045752       -1.2806302707
 S         -3.0649523157       -1.5258284292       -0.5276159703
 O         -2.2749425728       -1.7958753758        0.6534329621
 O         -3.0445862139       -2.5375990187       -1.5615306703
 C         -4.7531972808       -1.1931578334       -0.0710653299
 C         -5.6650230355       -0.9509657990       -1.0801163021
 C         -6.9820247296       -0.6848563711       -0.7412579629
 C         -7.3627463698       -0.6678117411        0.5925103485
 C         -6.4357932880       -0.9164053957        1.5933209099
 C         -5.1162911359       -1.1822865878        1.2612983377
 H         -4.3586214419       -1.3759802687        2.0038528374
 H         -6.7333210914       -0.9031920056        2.6295433934
 H         -8.3882836356       -0.4600479323        0.8540227368
 H         -7.7059542103       -0.4916359968       -1.5163464067
 H         -5.3268916495       -0.9800631687       -2.1024257571
 H         -1.9480272430       -0.3345744159       -2.0416058507
 H         -3.8602024986        1.1995919479        0.6178283263
 H         -2.8746525518        2.8513221900        2.1702701979
 H         -0.4800122301        3.4144733583        2.0265387347
 H          1.6363098052        3.0042354251        1.1874455223
 C          1.7744391316        3.2239881178       -0.9273212098
 C          0.8494708517        3.5321034475       -2.0632626515
 C          1.2377205358        4.6139138947       -1.1040338271
 H          1.9088789912        5.3908411543       -1.4371145469
 H          0.4896198625        4.9462030506       -0.3999622338
 H          1.2689585523        3.5414240707       -3.0578291909
 H         -0.1598891404        3.1541663851       -2.0216373151
 H          2.8159952271        3.0701585123       -1.1895637620
