  62
        -98.94091841
 C         -1.4648406331       -1.2113062600        0.0351216744
 C         -2.5043076758       -0.7433651208        0.8662734796
 C         -3.1264760002        0.5424363041        0.4989119722
 C         -2.6479039090        1.2101501544       -0.5679703599
 C         -3.1418193277        2.5095255078       -1.1458047044
 C         -4.4447368874        2.3472760916       -1.9471929877
 C         -5.4897895335        1.4397841814       -1.3028411856
 H         -6.3021906484        1.3062838447       -2.0218660356
 H         -5.0492201562        0.4571873517       -1.1245343287
 C         -6.0975948739        1.9665817309       -0.0053034515
 H         -6.8691835514        1.2572956171        0.3046392248
 H         -6.5854073724        2.9240106137       -0.2014437424
 C         -5.1254444145        2.1508256424        1.1611655471
 H         -5.7242980032        2.3121465433        2.0625450387
 H         -4.5206507370        3.0441578611        1.0293982078
 C         -4.2315319055        0.9475259660        1.4454625892
 H         -3.7454756426        1.0993721578        2.4176582916
 H         -4.8587579848        0.0576167266        1.5730923645
 H         -4.8716913107        3.3373533964       -2.1148574054
 H         -4.1889986145        1.9202684715       -2.9197934779
 H         -3.2561276003        3.2453725348       -0.3550442162
 H         -2.3588161521        2.8694349682       -1.8171064546
 O         -1.6219479782        0.7333598685       -1.3262255758
 C         -0.9890548470       -0.4578108854       -1.0379241140
 O         -0.0446926203       -0.7417953114       -1.7998836466
 O         -2.9043372391       -1.3740142540        1.8854278075
 C         -0.7719072367       -2.5208526924        0.3710025841
 C          0.6986010116       -2.2543722558        0.5708529822
 C          1.7104397151       -2.9980048495       -0.0221687662
 C          3.0369740955       -2.6303258794        0.1291122365
 C          3.3800920788       -1.5033223682        0.8537422656
 C          2.3761494341       -0.7711024077        1.4720348446
 C          1.0555365924       -1.1631401075        1.3542264207
 H          0.2808730326       -0.5728286975        1.8290878456
 N          2.7218673479        0.4440682389        2.1373037512
 S          2.4128693843        1.7561764562        1.1129368552
 O          2.8481791276        2.9308896237        1.8400506663
 O          1.0292940298        1.7787291184        0.6848282067
 C          3.5060857433        1.4301315270       -0.2477605419
 C          4.8200958249        1.8437772998       -0.1408231726
 C          5.7003562488        1.5489401213       -1.1688492750
 C          5.2535958119        0.8436865107       -2.2766538421
 C          3.9317189455        0.4357065789       -2.3663596575
 C          3.0427835905        0.7279829350       -1.3427988821
 H          2.0095337644        0.4161432054       -1.3851901354
 H          3.5795275724       -0.1154998325       -3.2234443236
 H          5.9389862233        0.6094374655       -3.0759394295
 H          6.7287926222        1.8653685221       -1.1024093195
 H          5.1166108377        2.3899687053        0.7395182082
 H          2.1866789511        0.5861934005        2.9848271819
 H          4.4042138533       -1.1801278774        0.9438593211
 H          3.8098964380       -3.2139498618       -0.3461349224
 H          1.4575075335       -3.8570351845       -0.6218299656
 H         -1.2071956149       -2.8498581699        1.3264258394
 C         -1.0611999073       -3.5637772974       -0.6876749346
 C         -1.0581461424       -5.0206847933       -0.3350342579
 C         -2.3517626645       -4.3223378028       -0.6243980122
 H         -2.8653526780       -4.5436292313       -1.5478868337
 H         -3.0138694030       -4.1036162301        0.2007388567
 H         -0.6856745373       -5.7262729315       -1.0620238931
 H         -0.8452833964       -5.2865077640        0.6892512017
 H         -0.7008851225       -3.2700272323       -1.6673195020
