  62
        -98.94457925
 C         -1.2347409200       -1.1655148395        0.1342830702
 C         -2.0358985998       -0.6207244894        1.1695586702
 C         -2.6653764995        0.6745039408        0.8883004003
 C         -2.4133939693        1.2985972909       -0.2758848596
 C         -2.9554951389        2.6368395410       -0.6994131195
 C         -4.3590792289        2.5745533215       -1.3175655195
 C         -5.4937869890        2.3021956717       -0.3293688195
 H         -5.4284445288        3.0064782016        0.5006162005
 H         -6.4304139290        2.5023803020       -0.8534133495
 C         -5.5301366294        0.8667137317        0.2135548703
 H         -4.9260291096        0.2196393416       -0.4267456897
 H         -6.5539696395        0.4880744919        0.1751848703
 C         -5.0487795395        0.7220570914        1.6575633303
 H         -5.7260128493        1.2584951115        2.3258627204
 H         -5.0811043398       -0.3371429986        1.9264756802
 C         -3.6208192793        1.2286365210        1.9009555204
 H         -3.5998614290        2.3185182810        1.8887275905
 H         -3.2958507794        0.8854265108        2.8866419504
 H         -4.3643521791        1.8094534416       -2.0972463596
 H         -4.5468874987        3.5385555716       -1.7957240494
 H         -2.9610681587        3.3152227010        0.1544113806
 H         -2.2666499088        3.0315844909       -1.4492405994
 O         -1.5890541094        0.7739797907       -1.2189906496
 C         -0.9829548998       -0.4684692295       -1.0480615598
 O         -0.2622707199       -0.8070715396       -2.0028381598
 H          1.2303785401       -0.9352283003        1.5356398202
 C          1.6805707999       -1.5399956204        0.7610090502
 C          0.8938977597       -2.4323796201        0.0414718801
 C          1.4932435895       -3.2017932102       -0.9465830400
 C          2.8462213295       -3.0733138505       -1.2068012000
 C          3.6234016897       -2.1783844808       -0.4954882099
 C          3.0336993900       -1.4032667707        0.4972933802
 N          3.8071362102       -0.5050017910        1.2554934103
 S          3.2854077306        1.0599292791        1.5160680104
 O          4.4429896808        1.7338395988        2.0632688805
 O          2.1003007406        1.0631766394        2.3354708804
 C          2.9280312208        1.7065141794       -0.1045109095
 C          1.6287466508        1.6978479098       -0.5656559095
 C          1.3695719609        2.1470151400       -1.8503366495
 C          2.4114437511        2.5950784198       -2.6468221794
 C          3.7126728911        2.6049613393       -2.1666315194
 C          3.9774335209        2.1520085392       -0.8849747195
 H          4.9719492209        2.1519648288       -0.4690009495
 H          4.5186556112        2.9596401892       -2.7887207494
 H          2.2046173912        2.9393516499       -3.6478663594
 H          0.3580667909        2.1207241603       -2.2230477395
 H          0.8432104407        1.3409292299        0.0826932404
 H          4.7885122802       -0.5064193212        1.0156547503
 H          4.6781794198       -2.0784031511       -0.7017212499
 H          3.3001464393       -3.6730388906       -1.9809227200
 H          0.8969893593       -3.8864081399       -1.5267323801
 C         -0.5718671303       -2.5070749397        0.3873368901
 H         -0.6492746404       -2.6445587698        1.4796071001
 C         -1.2875014507       -3.6904532595       -0.2465945401
 C         -2.7728444007       -3.6687861390       -0.4467971901
 C         -1.8568553706       -3.6445908592       -1.6316125300
 H         -1.7886457009       -4.5338402291       -2.2411539001
 H         -1.7521456204       -2.7259761692       -2.1866051900
 H         -3.2981293004       -2.7613046989       -0.1857068600
 H         -3.3325019509       -4.5693700589       -0.2430669301
 H         -0.8616092909       -4.6365357096        0.0737621199
 O         -2.2144969400       -1.1898596194        2.2800254402
