  62
        -98.94032230
 C          2.3586893620       -0.0427288173       -0.2015331496
 C          3.4442726312       -0.2282032912       -1.0902337235
 C          4.7266553101        0.3491185513       -0.6677062811
 C          4.7937077281        1.0157029493        0.4995801812
 C          6.0474666465        1.6049125624        1.0769944440
 C          6.7649986414        0.5999743406        1.9891893361
 C          6.9516146752       -0.7814718782        1.3616910770
 H          7.4937981269       -1.3958673119        2.0837550865
 H          5.9719583141       -1.2434185326        1.2188914507
 C          7.7079364092       -0.7754372143        0.0258877956
 H          8.2523570257        0.1626811880       -0.0875298689
 H          8.4464288530       -1.5797703403        0.0379314701
 C          6.8251402702       -1.0001431036       -1.2030141790
 H          6.2081656011       -1.8898548762       -1.0535893999
 H          7.4764714238       -1.1939738304       -2.0594152114
 C          5.9040855772        0.1657662828       -1.5836923127
 H          6.4859978750        1.0869859709       -1.6532059727
 H          5.4840048605       -0.0514073050       -2.5702059569
 H          7.7384258589        1.0133873864        2.2591230523
 H          6.1790878259        0.4836603924        2.9038068912
 H          6.7061008775        1.9095987103        0.2660251264
 H          5.7755748355        2.4842786169        1.6630793185
 O          3.7241027295        1.1903920930        1.3177216581
 C          2.4821366317        0.6634471013        0.9948632748
 O          1.5922067154        0.8917948464        1.8358151898
 H         -1.5971066685       -0.6566762349        0.3497789771
 C         -1.3271901532        0.2591829827       -0.1488418375
 C         -0.0490435328        0.4432013899       -0.6512021468
 C          0.2456331512        1.6441779714       -1.2923462113
 C         -0.7091599241        2.6348109915       -1.4122449993
 C         -1.9879895460        2.4419147653       -0.9194158862
 C         -2.2953559269        1.2450217568       -0.2853853077
 N         -3.5799472312        1.0118340547        0.2318866767
 S         -4.2102176969       -0.5501667890        0.0930405931
 O         -3.7922731399       -1.3275002099        1.2322762256
 O         -3.8912497685       -1.0960144375       -1.2065916216
 C         -5.9586490327       -0.2121006211        0.2025305323
 C         -6.6721782116        0.0079248264       -0.9610054446
 C         -8.0248327132        0.2966200281       -0.8739926726
 C         -8.6378289299        0.3621965516        0.3683798452
 C         -7.9091913449        0.1380383183        1.5270210903
 C         -6.5561295617       -0.1514132835        1.4471866727
 H         -5.9514314052       -0.3411335059        2.3187432316
 H         -8.3899194696        0.1864836613        2.4907410984
 H         -9.6908480668        0.5861154518        0.4336869346
 H         -8.5946426433        0.4675482910       -1.7731083954
 H         -6.1566152248       -0.0652167745       -1.9051659365
 H         -4.2506979001        1.7145041567       -0.0476761728
 H         -2.7367556819        3.2129289351       -1.0198911486
 H         -0.4599459674        3.5626017120       -1.9052603439
 H          1.2392470273        1.7912169638       -1.6939947028
 C          1.0086074260       -0.6295906844       -0.5642102781
 H          1.1354616737       -1.0566938842       -1.5715020887
 C          0.6485328899       -1.7480064207        0.3917421141
 C         -0.2120136524       -2.8874995490       -0.0627945396
 C          1.2488929272       -3.1056807156        0.1888670492
 H          1.5442982197       -3.6746321319        1.0575935301
 H          1.8996210606       -3.2366380622       -0.6635270523
 H         -0.9279668049       -3.3002341829        0.6328571340
 H         -0.5594274107       -2.8748654334       -1.0853493316
 H          0.5319812867       -1.3989532558        1.4124405198
 O          3.3431500148       -0.8422886858       -2.1870393633
