  62
        -98.93634474
 C         -2.0733170216       -1.5758075403        0.0582670297
 C         -1.7509623411       -0.4666399745       -0.7622764429
 C         -2.7989599212        0.5623513006       -0.8832054917
 C         -3.9841225440        0.3833892566       -0.2744781391
 C         -5.1203871465        1.3635758607       -0.2907535942
 C         -5.0435358096        2.3236284423        0.9044546725
 C         -3.6680431060        2.9634567430        1.0923398677
 H         -3.7415147505        3.6486104249        1.9395749786
 H         -2.9485843011        2.1884692079        1.3665835483
 C         -3.1507475714        3.7221311519       -0.1374224154
 H         -2.7368993087        4.6778952620        0.1904948081
 H         -3.9793200621        3.9440153693       -0.8109569652
 C         -2.0459355075        2.9991354904       -0.9101027395
 H         -1.2586837877        2.6877258341       -0.2195049841
 H         -1.6077819149        3.7112190023       -1.6140574346
 C         -2.4834541301        1.7715437242       -1.7185000613
 H         -3.3311128770        2.0304857458       -2.3563634183
 H         -1.6466192704        1.4805251284       -2.3599498537
 H         -5.7953735933        3.1034428868        0.7693395351
 H         -5.2907938501        1.7675287938        1.8117639544
 H         -5.0979273838        1.9240921972       -1.2232648383
 H         -6.0560958792        0.8043209758       -0.2366316082
 O         -4.2699851695       -0.7123213644        0.4742916008
 C         -3.3247406229       -1.7009123770        0.6705983744
 O         -3.7114223364       -2.6381343664        1.3989268326
 O         -0.6619477737       -0.3212712377       -1.3734416080
 C         -1.1110265794       -2.7317742085        0.3184281031
 C          0.2365629227       -2.2218324158        0.7624152756
 C          0.4239081871       -2.0117856633        2.1280852051
 C          1.6137255491       -1.5099976670        2.6204883008
 C          2.6559121637       -1.2038998580        1.7632647875
 C          2.4791241212       -1.3937970531        0.4004580310
 C          1.2802303459       -1.8979640341       -0.0904763586
 H          1.1692985286       -1.9967541467       -1.1556254650
 N          3.5215448521       -1.0990567794       -0.4951179900
 S          4.4202106897        0.2965540113       -0.3089440555
 O          5.0937190429        0.4738333897       -1.5755454875
 O          5.2720184069        0.1663520624        0.8476277009
 C          3.2470312072        1.6135422486       -0.0534718523
 C          2.5360723258        2.0692269274       -1.1457032988
 C          1.6131365258        3.0855610527       -0.9679344318
 C          1.4103019395        3.6201400535        0.2953093191
 C          2.1281270925        3.1481096902        1.3828970446
 C          3.0579030663        2.1352184899        1.2097910815
 H          3.6457512364        1.7513416102        2.0272459013
 H          1.9674569128        3.5658340765        2.3638914687
 H          0.6893232635        4.4110469795        0.4312507798
 H          1.0524276441        3.4523135656       -1.8123478596
 H          2.7241613296        1.6356237279       -2.1145750600
 H          3.2645019739       -1.2237114530       -1.4634947214
 H          3.5972004422       -0.8281226826        2.1290510504
 H          1.7342080086       -1.3602978007        3.6826937373
 H         -0.3852462721       -2.2438649855        2.8070628407
 H         -1.5434476630       -3.2479676604        1.1894178277
 C         -1.1897392868       -3.7513048731       -0.8137887607
 C         -0.7225906524       -3.5227509842       -2.2188769856
 C         -0.0224184239       -4.5235385106       -1.3485476691
 H         -0.1662593349       -5.5716815115       -1.5653379235
 H          0.9601844921       -4.2866922838       -0.9720517607
 H         -1.3487346245       -3.8924754108       -3.0188997189
 H         -0.2464435582       -2.5854273423       -2.4558000025
 H         -2.1235546325       -4.3022529291       -0.7298223375
