  62
        -98.94253235
 C          0.7743842560        1.3428239859        0.6723605068
 C          1.2964258843        1.0385062107       -0.6058513629
 C          2.1539792140       -0.1593552285       -0.7007306844
 C          2.4160362604       -0.8596633933        0.4181385246
 C          3.3034830677       -2.0674475000        0.5565487597
 C          4.8010148558       -1.7092305453        0.5231303078
 C          5.1910810486       -0.6293905805       -0.4841261979
 H          4.5849189124        0.2613842313       -0.3086301663
 H          6.2320318732       -0.3560100362       -0.2924274003
 C          5.0804524969       -1.0346505426       -1.9520735132
 H          5.7759130409       -1.8537901662       -2.1501255232
 H          5.3947719374       -0.1782269711       -2.5539807388
 C          3.6906815975       -1.4660513517       -2.4211686919
 H          3.4432356234       -2.4518588621       -2.0358476674
 H          3.7266737324       -1.5615191319       -3.5107516071
 C          2.5676505557       -0.4781975865       -2.1153421221
 H          2.8022412246        0.4859969563       -2.5806071633
 H          1.6502156943       -0.8274905716       -2.6088855549
 H          5.3704160863       -2.6182598414        0.3235571422
 H          5.0792005826       -1.3468746404        1.5154064974
 H          3.0555881942       -2.7937602510       -0.2130561283
 H          3.0782641804       -2.5199084510        1.5246943352
 O          1.9190488570       -0.5065563744        1.6385026276
 C          1.0580041264        0.5637531208        1.7911921183
 O          0.6223132901        0.7184536675        2.9502076308
 O          1.0644222508        1.7380331915       -1.6270202635
 C         -0.1933252614        2.5003886944        0.8350777111
 C         -1.3624905885        2.3130138625       -0.1022405020
 C         -1.9514422745        3.3510478433       -0.8124675825
 C         -3.0044457291        3.0975802950       -1.6747648384
 C         -3.4798365609        1.8121291907       -1.8587112281
 C         -2.9061447995        0.7685177270       -1.1412980612
 C         -1.8776995202        1.0321249159       -0.2531912307
 H         -1.4373537543        0.2183320478        0.3042500839
 N         -3.3624561250       -0.5513724401       -1.2799226791
 S         -2.2670012652       -1.8154771734       -1.2129995354
 O         -0.9988003343       -1.4751293461       -1.8134887692
 O         -2.9734899172       -2.9251432681       -1.8207694460
 C         -2.0688555370       -2.1458728568        0.5241565076
 C         -3.1903957920       -2.1947385307        1.3278770227
 C         -3.0317500016       -2.4628176914        2.6779484911
 C         -1.7642176609       -2.6795949334        3.1970874953
 C         -0.6493030645       -2.6361038556        2.3748371657
 C         -0.8017162483       -2.3690398582        1.0240205886
 H          0.0405068482       -2.3060403806        0.3511567889
 H          0.3380235829       -2.7904278301        2.7798997108
 H         -1.6403454839       -2.8786481996        4.2498173647
 H         -3.8949447801       -2.4969529927        3.3230224777
 H         -4.1579220729       -2.0163737648        0.8892404761
 H         -4.0555313867       -0.6918644741       -2.0007114248
 H         -4.2821359147        1.6135034629       -2.5529250887
 H         -3.4499067562        3.9115328349       -2.2264961787
 H         -1.5785804032        4.3561289115       -0.7013001461
 H         -0.5659990369        2.4436155319        1.8687731455
 C          0.5219769051        3.8223492372        0.6460145822
 C          0.0698693265        5.0428920640        1.3888161480
 C          1.3479634152        4.3621996630        1.7735067926
 H          2.2841486130        4.8473252747        1.5413691008
 H          1.3690847582        3.7876494959        2.6882704726
 H          0.1312783891        6.0002041079        0.8933882584
 H         -0.7756850609        4.9408281151        2.0520236883
 H          0.9058259772        3.9445686325       -0.3604836367
