  62
        -98.94014845
 C         -2.4351503971        0.8636007439        0.0202552533
 C         -2.7311112625       -0.4943179216       -0.2495361686
 C         -4.1250424861       -0.7786143555       -0.6146060499
 C         -5.0127819489        0.2284672621       -0.7057390353
 C         -6.4601745143        0.1016270307       -1.0973345323
 C         -7.3899971712       -0.2779228131        0.0631499167
 C         -7.2751844121       -1.7260593903        0.5403946832
 H         -8.1240822538       -1.9138406398        1.2007842664
 H         -7.3718055061       -2.3975018059       -0.3132889543
 C         -5.9795875300       -2.0409084757        1.3011926471
 H         -5.5106431811       -1.1087218240        1.6247528963
 H         -6.2161212208       -2.6092482803        2.2035936916
 C         -4.9595203912       -2.8570479080        0.5070092348
 H         -4.0696197365       -2.9901900883        1.1276222242
 H         -5.3699344132       -3.8458626623        0.2905376835
 C         -4.5219867674       -2.2102020487       -0.8138642115
 H         -3.6460920254       -2.7473797967       -1.1858545609
 H         -5.3198621384       -2.2859046831       -1.5522873298
 H         -7.1980708008        0.3980129724        0.8995977974
 H         -8.4156354922       -0.1085334380       -0.2725802686
 H         -6.7653269928        1.0790719462       -1.4770424124
 H         -6.5598324880       -0.6299512263       -1.8995608915
 O         -4.6788715052        1.5250430489       -0.4653403144
 C         -3.3945752748        1.8707250026       -0.0785487801
 O         -3.2317305975        3.0900676915        0.1335901130
 O         -1.8796691079       -1.4194911589       -0.1942012667
 C         -1.0325172783        1.2637093305        0.4350769996
 C         -0.0241758103        0.8717378200       -0.6183438713
 C         -0.3159755937        1.0980250399       -1.9612345524
 C          0.5979609199        0.7793627883       -2.9465721476
 C          1.8333517448        0.2509987789       -2.6151027163
 C          2.1372487264        0.0265167023       -1.2783842861
 C          1.2092318284        0.3312676272       -0.2915964613
 H          1.4746165366        0.1452203607        0.7356002316
 N          3.3763473749       -0.5178547425       -0.9040598521
 S          4.0889423702        0.0383761485        0.5229443319
 O          3.5770217044       -0.7271001125        1.6314664505
 O          3.9504905541        1.4739674340        0.6178912659
 C          5.7935186351       -0.3973929531        0.2278098560
 C          6.6568111567        0.5576342905       -0.2754823147
 C          7.9731256342        0.2051093728       -0.5286168705
 C          8.4010603530       -1.0900279099       -0.2781783529
 C          7.5233384213       -2.0374194826        0.2278699582
 C          6.2061203793       -1.6914080685        0.4843030526
 H          5.4911053762       -2.3904608039        0.8859010019
 H          7.8606197962       -3.0423449493        0.4243057415
 H          9.4259421013       -1.3619427022       -0.4755772313
 H          8.6586271373        0.9403735386       -0.9182355650
 H          6.2820105740        1.5541758396       -0.4456603055
 H          4.0383861929       -0.5523202083       -1.6671273400
 H          2.5509446080        0.0095673612       -3.3844995629
 H          0.3514772506        0.9548283319       -3.9831189797
 H         -1.2748390122        1.5263374433       -2.2216549592
 H         -1.0348176685        2.3626682842        0.5018515048
 C         -0.7147175256        0.6973472414        1.8038575651
 C          0.2312287496        1.4126833954        2.7192868036
 C         -1.2361937040        1.3951860720        3.0224951882
 H         -1.5854321409        0.7970477599        3.8507034346
 H         -1.8008121111        2.3035776625        2.8685850825
 H          0.8969194193        0.8239356973        3.3333968757
 H          0.6695662404        2.3340807546        2.3650505013
 H         -0.7068016027       -0.3872027939        1.8121239335
