  62
        -98.94905702
 C         -0.8755028585       -1.3504789281        0.2302916840
 C         -1.4411104874       -0.2843158475        0.9661304953
 C         -2.2778894440        0.6502752628        0.2023406706
 C         -2.3979277445        0.4865225499       -1.1279268349
 C         -3.2280383564        1.3584486754       -2.0250139626
 C         -4.6496812872        0.8026205455       -2.1859101896
 C         -5.3231109900        0.4454362271       -0.8608253683
 H         -6.3308469393        0.0943282997       -1.0928018957
 H         -4.7877309891       -0.3906115957       -0.4051371390
 C         -5.4025335807        1.6044174217        0.1425369102
 H         -5.2568318147        2.5527872794       -0.3757717055
 H         -6.4043770838        1.6225841751        0.5765332923
 C         -4.4151494323        1.5046025306        1.3066004879
 H         -4.4913465638        0.5159136855        1.7656428107
 H         -4.7063566047        2.2397829958        2.0613734464
 C         -2.9422518932        1.7634519724        0.9634553418
 H         -2.8500958793        2.7102199800        0.4263060726
 H         -2.3943053793        1.8413525215        1.9068877831
 H         -5.2516445034        1.5431078531       -2.7159047371
 H         -4.6005177835       -0.0988442294       -2.8010922886
 H         -3.2643062262        2.3652288025       -1.6124966850
 H         -2.7446202905        1.3965927733       -3.0031932064
 O         -1.8085114407       -0.5287790593       -1.8081362208
 C         -1.0352018994       -1.4723513519       -1.1507422513
 O         -0.5648224581       -2.3587571230       -1.8895928528
 O         -1.2503654926       -0.1176618321        2.2015381209
 C          0.0173460537       -2.3472671476        0.9477387002
 C          1.3977934910       -2.2994687853        0.3408771504
 C          2.1416914217       -3.4270531084        0.0204938692
 C          3.3793949089       -3.2967958134       -0.5863337940
 C          3.8890507115       -2.0509149603       -0.9015036256
 C          3.1583391251       -0.9154032381       -0.5686268475
 C          1.9420465101       -1.0485584842        0.0776511085
 H          1.3796363523       -0.1634769246        0.3372951499
 N          3.6384293630        0.3697977091       -0.8586978193
 S          2.5660976899        1.6055821621       -1.2094878005
 O          1.3945375027        1.1412515200       -1.9156107254
 O          3.3761016602        2.5850135451       -1.9060882762
 C          2.1252939480        2.2691472632        0.3817931743
 C          3.1252039868        2.4687378178        1.3132664630
 C          2.7952567707        3.0216506807        2.5398534896
 C          1.4811166246        3.3733686576        2.8084688046
 C          0.4907347071        3.1733669168        1.8599105067
 C          0.8127158949        2.6133321990        0.6339660023
 H          0.0677914304        2.4202937892       -0.1234643901
 H         -0.5313765396        3.4438732738        2.0696336063
 H          1.2239878042        3.8046951827        3.7629870338
 H          3.5619585506        3.1771964881        3.2816065752
 H          4.1347342568        2.1865689430        1.0654750386
 H          4.4630929670        0.4017371896       -1.4400634242
 H          4.8385146614       -1.9534109753       -1.4054161926
 H          3.9457830159       -4.1806562206       -0.8379648648
 H          1.7472679832       -4.4077806917        0.2300808470
 H          0.0803613677       -1.9908457518        1.9869178220
 C         -0.6022928164       -3.7285882208        0.9395113698
 C         -0.3237774030       -4.6906500012        2.0546593464
 C         -1.6720705569       -4.0475796539        1.9392099106
 H         -2.5093594227       -4.6515693608        1.6231662710
 H         -1.9339250710       -3.2745292349        2.6468329622
 H         -0.2373204141       -5.7407788177        1.8196387528
 H          0.3277682972       -4.3597088919        2.8489864838
 H         -0.7203417977       -4.1232225785       -0.0636650898
