  62
        -98.94416220
 C         -1.7358483229       -1.4322437347       -0.0020008899
 C         -2.8920754501       -0.8201772359        0.5413959936
 C         -3.4069964123        0.3536165815       -0.1733673422
 C         -2.7556425051        0.7953302773       -1.2645142784
 C         -3.1369686053        2.0109242679       -2.0578226552
 C         -2.4003948429        3.2566450499       -1.5471226026
 C         -2.4859367315        3.4493562406       -0.0330149545
 H         -1.9212271759        2.6493395470        0.4532514228
 H         -1.9674448851        4.3817354884        0.2035178546
 C         -3.9147264795        3.4997968864        0.5267483212
 H         -3.9776038823        4.3205182294        1.2445423159
 H         -4.6183408216        3.7176950626       -0.2777183293
 C         -4.3598492263        2.2330795262        1.2600769129
 H         -5.2798305367        2.4610992354        1.8052598059
 H         -3.6023496686        1.9549995846        1.9979422826
 C         -4.6413750806        1.0123994378        0.3750273575
 H         -5.1344055698        0.2585108345        0.9960347361
 H         -5.3212574660        1.2921339829       -0.4322209195
 H         -1.3432823733        3.1678787450       -1.8093981721
 H         -2.8093474866        4.1333646005       -2.0535121783
 H         -2.8631840171        1.8414736085       -3.1006859706
 H         -4.2133709099        2.1593448123       -1.9930963699
 O         -1.6405468408        0.1976689913       -1.7475651072
 C         -1.0729138135       -0.8937169763       -1.1075755929
 O         -0.0135891972       -1.2862790650       -1.6305100340
 O         -3.4638687719       -1.2339830030        1.5878159456
 C         -1.1360743108       -2.6061568815        0.7567443559
 C          0.3270470490       -2.3250983103        0.9832493072
 C          1.3622220081       -3.1519341570        0.5691456272
 C          2.6811118947       -2.7599504385        0.7272622815
 C          2.9934848243       -1.5274390031        1.2716852830
 C          1.9636109783       -0.7017541663        1.7012692891
 C          0.6497682197       -1.1152316864        1.5871290324
 H         -0.1468856286       -0.4553035979        1.9109990050
 N          2.2780478178        0.6138315957        2.1571890084
 S          2.0466958314        1.7165923063        0.8919055061
 O          2.3825436111        3.0148809303        1.4404080843
 O          0.7149201717        1.6118295250        0.3352905890
 C          3.2845219668        1.1986336481       -0.2707594881
 C          4.5703660418        1.6760424563       -0.1036283203
 C          5.5653232968        1.2334824587       -0.9595573580
 C          5.2585261472        0.3198084208       -1.9573045835
 C          3.9630956516       -0.1498966376       -2.1087479599
 C          2.9595955892        0.2898045052       -1.2581215385
 H          1.9441734841       -0.0665875325       -1.3495708602
 H          3.7205728082       -0.8635448685       -2.8797060696
 H          6.0335273305       -0.0299382239       -2.6211055444
 H          6.5737188556        1.5970261988       -0.8444606145
 H          4.7562982917        2.3843261398        0.6869645743
 H          1.6900102638        0.9069324745        2.9273925052
 H          4.0140165338       -1.1919657560        1.3594160166
 H          3.4743425688       -3.4105656144        0.3932785005
 H          1.1353598572       -4.0900605106        0.0897594879
 H         -1.6461518707       -2.5843407201        1.7350843092
 C         -1.4159847531       -3.9730601451        0.1537092687
 C         -2.6304238529       -4.2051259565       -0.6935317419
 C         -1.2663588088       -4.2540769829       -1.3102835704
 H         -0.8760102575       -5.2162485295       -1.6079939958
 H         -0.9578067630       -3.4397526357       -1.9460371054
 H         -3.1754112050       -5.1286493485       -0.5678724992
 H         -3.2584965894       -3.3525706465       -0.9091843361
 H         -1.1467757252       -4.7759882835        0.8332127925
