  62
        -98.93698444
 C         -1.4396454869       -1.4767871653        0.1782066104
 C         -2.5026724414       -0.9949714930        0.9794123172
 C         -3.3147101221        0.1021822164        0.4214011960
 C         -2.9723446455        0.6143776053       -0.7748283806
 C         -3.6659885571        1.7332110905       -1.5032236255
 C         -3.3193928884        3.1331121888       -0.9494415592
 C         -2.9634933156        3.1738995566        0.5372068071
 H         -2.2331099791        2.3916512233        0.7545878271
 H         -2.4798788357        4.1320860054        0.7457104155
 C         -4.1569178809        3.0404524348        1.4835224413
 H         -3.7739875068        2.9280945096        2.5010143072
 H         -4.7365351624        3.9665279823        1.4477879050
 C         -5.1106254009        1.8863870835        1.1844815732
 H         -5.5844252212        2.0415669398        0.2186080316
 H         -5.9078254912        1.9168824778        1.9334005920
 C         -4.4998954423        0.4882285630        1.2701687823
 H         -5.2911993013       -0.2436399940        1.0630332474
 H         -4.1855220538        0.3004406355        2.3028020204
 H         -4.1565753443        3.8060170525       -1.1392351019
 H         -2.4604751966        3.5129185914       -1.5061337575
 H         -3.3481023770        1.6791438689       -2.5459533145
 H         -4.7385511636        1.5546738901       -1.4754061938
 O         -1.8880835313        0.1822234587       -1.4720759080
 C         -1.0987341164       -0.8709675612       -1.0329163778
 O         -0.1571671736       -1.1490479212       -1.7939762497
 O         -2.7650066895       -1.4610333167        2.1220565049
 C         -0.6217023832       -2.6385194142        0.7141978342
 C          0.8490443044       -2.3336217458        0.5886701484
 C          1.7314192676       -3.0792199944       -0.1805560406
 C          3.0633883179       -2.7132568679       -0.2722866786
 C          3.5438135803       -1.6042564013        0.3987381485
 C          2.6688252927       -0.8522996677        1.1721335577
 C          1.3370684445       -1.2214663321        1.2647911064
 H          0.6546615908       -0.6282493222        1.8619902619
 N          3.1466799719        0.2922845570        1.8465157851
 S          3.8219755148        1.4783458247        0.8707611784
 O          5.1331429219        1.0535631457        0.4508323577
 O          3.7693372573        2.6917079922        1.6559319370
 C          2.7281820478        1.5905142054       -0.5305740658
 C          1.5251083895        2.2458471269       -0.3618993616
 C          0.6323877400        2.2879797919       -1.4188753779
 C          0.9493851419        1.6659551247       -2.6158015995
 C          2.1593120519        1.0087935531       -2.7673758410
 C          3.0593368475        0.9665561828       -1.7154686468
 H          4.0095272258        0.4640431082       -1.7929174804
 H          2.3960184670        0.5168682834       -3.6966945860
 H          0.2428863035        1.6834238436       -3.4302048977
 H         -0.3140836029        2.7905313825       -1.2999129642
 H          1.3120813382        2.7205610515        0.5834686247
 H          2.4530257045        0.7116932880        2.4497859288
 H          4.5751002050       -1.2983529902        0.3278783083
 H          3.7364411732       -3.2981485407       -0.8805271674
 H          1.3715532416       -3.9325558634       -0.7309530596
 H         -0.8694588797       -2.6737378049        1.7885748271
 C         -1.0094101498       -3.9927753486        0.1398449512
 C         -2.4105138510       -4.2621803987       -0.3190847801
 C         -1.2947118008       -4.1996520624       -1.3163557083
 H         -0.9682852180       -5.1216212480       -1.7750709838
 H         -1.2295174589       -3.3417046002       -1.9664301136
 H         -2.8491083510       -5.2225677700       -0.0930651046
 H         -3.1141870315       -3.4429990776       -0.2860550031
 H         -0.5111948847       -4.8065646177        0.6580930788
