  62
        -98.94447413
 C         -1.8245490302       -0.0041240397       -0.4338881300
 C         -2.9857133000        0.3407905800       -1.1665310804
 C         -4.2552994901       -0.1535705000       -0.6226906607
 C         -4.2548552204       -0.9059391697        0.4928889895
 C         -5.4647674705       -1.5102354197        1.1528337593
 C         -6.2073881009       -0.5525498295        2.0946738588
 C         -7.0016294308        0.5553430203        1.4017090583
 H         -7.6541998005        0.1149501000        0.6472112482
 H         -7.6415509411        1.0122280504        2.1592398880
 C         -6.1354869907        1.6493439602        0.7619109683
 H         -5.1238779808        1.5986895604        1.1712417986
 H         -6.5373394709        2.6308804402        1.0231112780
 C         -6.0556435302        1.5838102898       -0.7632418816
 H         -7.0446007001        1.7644993097       -1.1901517320
 H         -5.3900279902        2.3800665598       -1.1056948116
 C         -5.5234121800        0.2531266298       -1.3110311612
 H         -6.2790611899       -0.5253391203       -1.2080619512
 H         -5.2976309196        0.3848888395       -2.3720410311
 H         -5.4835505912       -0.1079673793        2.7816672489
 H         -6.9020383410       -1.1524743194        2.6871928187
 H         -6.1523100603       -1.8790489199        0.3910812091
 H         -5.1059901907       -2.3596364995        1.7382657096
 O         -3.1140970306       -1.2317719395        1.1581252599
 C         -1.8751024905       -0.7793137095        0.7243853602
 O         -0.9204428007       -1.1361953792        1.4408450805
 H          2.1325739397        0.0887863707       -0.0947173788
 C          1.7460845699       -0.7269578595       -0.6819147287
 C          0.4480796901       -0.6883674797       -1.1669865791
 C         -0.0139822096       -1.7632840099       -1.9230505090
 C          0.7929949906       -2.8574320899       -2.1627227585
 C          2.0798415304       -2.9030470797       -1.6556430781
 C          2.5573424001       -1.8305235995       -0.9127758183
 N          3.8752448600       -1.8320925092       -0.4389264079
 S          4.3203781195       -1.0593974389        0.9735879521
 O          5.6181210194       -1.6239820587        1.2832662926
 O          3.3211415392       -1.1718360287        2.0089369018
 C          4.5419235995        0.6434682010        0.5026727018
 C          5.1455849098        0.9331909008       -0.7051147081
 C          5.3587746698        2.2594875907       -1.0449883183
 C          4.9765353295        3.2682328509       -0.1737538587
 C          4.3761811091        2.9606811911        1.0374825012
 C          4.1552195691        1.6357468312        1.3812162714
 H          3.6791260889        1.3512342214        2.3066071314
 H          4.0791129688        3.7455341013        1.7152552509
 H          5.1447578494        4.2998885109       -0.4394690289
 H          5.8235805701        2.5029692906       -1.9867052383
 H          5.4316722301        0.1244467807       -1.3562481778
 H          4.3790309101       -2.6966880292       -0.5700820775
 H          2.7092634305       -3.7617524897       -1.8331004278
 H          0.4172582708       -3.6861998201       -2.7438893185
 H         -1.0224226295       -1.7311668101       -2.3127780794
 C         -0.4748282601        0.4807673103       -0.9304990897
 H         -0.6792110998        0.9566788500       -1.9016955699
 C          0.0941586895        1.5237856305        0.0079563002
 C          0.9927388096        2.5997403905       -0.5226076597
 C         -0.4032781605        2.9336527005       -0.0928097702
 H         -0.5448383909        3.4963509307        0.8176947496
 H         -1.1392085103        3.1441861702       -0.8550380405
 H          1.2082018599        2.5907699003       -1.5801442897
 H          1.8149153894        2.9342655907        0.0914804504
 H          0.2906824493        1.1297688608        0.9997991304
 O         -2.9600867997        1.0187417198       -2.2283745706
