  62
        -98.93460405
 C         -2.6404655533       -0.5495657882       -0.3007857799
 C         -2.0668914016       -1.2714716656        0.7727072725
 C         -1.2233230166       -2.4361181944        0.4192095662
 C         -1.0911261223       -2.7836214631       -0.8726834491
 C         -0.2874355800       -3.9064653420       -1.4776160053
 C          1.2165214104       -3.6107073855       -1.5196728949
 C          1.8068715640       -3.1300994494       -0.1975217719
 H          2.8727069581       -2.9445877067       -0.3605890121
 H          1.3580066479       -2.1706967297        0.0666374168
 C          1.6744085261       -4.1043627372        0.9715347866
 H          2.2772621097       -3.7002026172        1.7885008475
 H          2.1008675493       -5.0685311248        0.6856993860
 C          0.2562589844       -4.3290664765        1.5074516870
 H         -0.2846220094       -5.0661822201        0.9187641307
 H          0.3521564846       -4.7459034860        2.5140669529
 C         -0.5772619444       -3.0582626797        1.6330512852
 H         -1.3973710543       -3.2385059605        2.3381694956
 H          0.0295818481       -2.2671228974        2.0913994800
 H          1.7339534193       -4.5150044310       -1.8474261100
 H          1.3887576874       -2.8271147915       -2.2619134738
 H         -0.6469747268       -4.0230875760       -2.5028768367
 H         -0.4781573316       -4.8364910438       -0.9500481311
 O         -1.7212343354       -2.0968730897       -1.8713259055
 C         -2.4430490572       -0.9498691093       -1.6231855889
 O         -2.8889519680       -0.3899529123       -2.6478618624
 O         -2.2319320115       -0.9831191036        1.9867146364
 C         -3.3638863386        0.7790610701       -0.1389069112
 C         -2.3614955343        1.8890897983       -0.3473596782
 C         -2.6606173786        3.0189439409       -1.0994621926
 C         -1.6954514202        3.9842189938       -1.3302493191
 C         -0.4058334995        3.8224756928       -0.8555709198
 C         -0.0977738136        2.6944421713       -0.1043461738
 C         -1.0835261168        1.7620374679        0.1751674113
 H         -0.8277620488        0.9022893335        0.7748003648
 N          1.2019443880        2.4445379581        0.3710998807
 S          1.7051899110        0.8261843114        0.2449945306
 O          1.1987785781        0.2545622508       -0.9811608348
 O          1.3783706272        0.1441793088        1.4709075712
 C          3.4736526981        1.0373112152        0.1449342435
 C          4.0880357673        1.0240223833       -1.0927240247
 C          5.4580502311        1.2232758490       -1.1633060547
 C          6.1853075189        1.4353478930       -0.0016977305
 C          5.5547691267        1.4443304095        1.2337951423
 C          4.1857293023        1.2437954741        1.3115142790
 H          3.6527549994        1.2316881430        2.2479103284
 H          6.1237291443        1.6056048958        2.1350964181
 H          7.2508426973        1.5913614611       -0.0597199803
 H          5.9510669192        1.2121009738       -2.1219622751
 H          3.4813734567        0.8473715583       -1.9666276587
 H          1.8895507386        3.0765738739       -0.0174099460
 H          0.3567243064        4.5551834278       -1.0720339912
 H         -1.9415052798        4.8580031316       -1.9143813404
 H         -3.6467886733        3.1245336438       -1.5273814072
 H         -4.0867825837        0.8304313182       -0.9699551940
 C         -4.1454234203        0.9165663477        1.1576932861
 C         -3.6722155749        1.7505301942        2.3061164214
 C         -4.8385774656        2.2064396380        1.4851015583
 H         -5.8254052176        2.1628753129        1.9201531690
 H         -4.6831199278        3.0413231226        0.8191106501
 H         -3.8447540071        1.3731921257        3.3021702251
 H         -2.7326914525        2.2708081279        2.1984838891
 H         -4.6702869529        0.0021331290        1.4118040412
