  62
        -98.94847325
 C          0.8328144072        1.2303163510        0.5654953509
 C          1.2035375291        0.5385317665       -0.6123881455
 C          2.1437330317       -0.5733224400       -0.4210824448
 C          2.4704064939       -0.9633938526        0.8237476736
 C          3.4063331802       -2.0856444483        1.1826538750
 C          4.8833302071       -1.6680414088        1.2110827533
 C          5.5110578806       -1.4225932543       -0.1617701208
 H          6.5900108475       -1.3499068805       -0.0112892485
 H          5.3293951097       -2.2861798937       -0.8020934898
 C          5.0234921420       -0.1468222067       -0.8630140780
 H          5.8813718328        0.3963154277       -1.2659324285
 H          4.5450513569        0.5101321229       -0.1327962952
 C          4.0555963212       -0.3882365607       -2.0219201694
 H          4.5683992148       -0.9323227246       -2.8179165358
 H          3.7520502356        0.5834604254       -2.4192874129
 C          2.7865623857       -1.1630766274       -1.6393396433
 H          2.0719587955       -1.0802525273       -2.4607804013
 H          3.0250159927       -2.2133883397       -1.4791289784
 H          5.4401510126       -2.4677371713        1.7050837926
 H          4.9806971636       -0.7688318263        1.8240094814
 H          3.2806425383       -2.9132979477        0.4846547340
 H          3.1226691916       -2.4229699220        2.1820244347
 O          1.9615527635       -0.3671666461        1.9369753120
 C          1.1921248508        0.7813802655        1.8353710934
 O          0.8884712842        1.2971780896        2.9316843570
 O          0.7939378099        0.8439446891       -1.7609908726
 C          0.0171451401        2.5061219969        0.4674472535
 C         -1.3182744441        2.2378413896       -0.1805879105
 C         -1.8424014001        3.0156812679       -1.2049793022
 C         -3.0873215243        2.7263512099       -1.7359007262
 C         -3.8324599275        1.6644243447       -1.2586251381
 C         -3.3202035272        0.8863147568       -0.2257338313
 C         -2.0727238495        1.1756200243        0.3026014379
 H         -1.6858546696        0.5730520320        1.1123976389
 N         -4.0622691615       -0.1822477040        0.2974940124
 S         -3.3104656059       -1.5226072498        0.9314898546
 O         -4.3409025297       -2.5412521769        0.9188771310
 O         -2.7479616008       -1.2280910360        2.2262739835
 C         -2.0243522425       -2.0027559692       -0.2075519235
 C         -0.8778847711       -2.5694121805        0.3093220486
 C          0.0790169511       -3.0645599668       -0.5607783519
 C         -0.1193358059       -2.9733585984       -1.9289175277
 C         -1.2665902658       -2.3832308117       -2.4336017637
 C         -2.2351125183       -1.9022374666       -1.5680609686
 H         -3.1408436750       -1.4531954960       -1.9411983825
 H         -1.4125859175       -2.3006376177       -3.4984603650
 H          0.6249048863       -3.3635294855       -2.6046798705
 H          0.9702194291       -3.5226853977       -0.1641393868
 H         -0.7552835424       -2.6078866018        1.3808421649
 H         -4.9104689528       -0.4126290482       -0.1981045374
 H         -4.8038898428        1.4400895622       -1.6716579548
 H         -3.4817363701        3.3354956192       -2.5347339387
 H         -1.2764427752        3.8475792785       -1.5897399970
 H         -0.1736173036        2.8237589059        1.5036488380
 C          0.8275288672        3.5786700877       -0.2320935589
 C          0.6070102480        5.0252021159        0.0895675938
 C          1.8544355738        4.3359918644        0.5528218290
 H          2.7907443499        4.5835202221        0.0754313595
 H          1.9501722712        4.0978920179        1.6026970439
 H          0.6903476410        5.7501832257       -0.7059816399
 H         -0.1423745266        5.2644598638        0.8289642999
 H          1.0773529532        3.3117566733       -1.2524590539
