  62
        -98.94915620
 C         -2.0895222711       -0.3833852036        0.5561040298
 C         -1.3918554885        0.5883960646        1.3123959097
 C         -1.6239303444        1.9899113051        0.9457557894
 C         -2.4567995535        2.2716458374       -0.0719325707
 C         -2.7917705195        3.6539715182       -0.5518294710
 C         -1.8668396580        4.1036651854       -1.6898217110
 C         -0.3792222686        3.9057584012       -1.3978129008
 H         -0.1524519117        2.8371896205       -1.3614467306
 H          0.1749871726        4.3144242794       -2.2464922708
 C          0.1111954331        4.5688454800       -0.1030770909
 H          1.0639692145        5.0622573072       -0.3071546408
 H         -0.5938712947        5.3391291721        0.2132844589
 C          0.3558980802        3.5899866195        1.0469709493
 H          0.9421354178        2.7475116778        0.6702903196
 H          0.9544385715        4.0977457879        1.8084636693
 C         -0.9013395015        3.0434094632        1.7370967193
 H         -1.5720690291        3.8683658052        1.9873680691
 H         -0.5904808330        2.5598668725        2.6679991294
 H         -2.1162973696        3.5322321759       -2.5870037709
 H         -2.0615953550        5.1588721259       -1.8933174512
 H         -3.8208945394        3.6469852611       -0.9162504611
 H         -2.7181433776        4.3473426782        0.2839982289
 O         -3.0836624761        1.3131152390       -0.7995063706
 C         -2.8868189100       -0.0347075715       -0.5336125204
 O         -3.4823912221       -0.7981068599       -1.3181867003
 O         -0.6148546294        0.2961211725        2.2625142498
 C         -1.8571376854       -1.8547315442        0.8685354201
 C         -1.0235761469       -2.4235875568       -0.2531993697
 C         -1.4493556196       -3.4142573957       -1.1261208196
 C         -0.6468580306       -3.7907530582       -2.1906414494
 C          0.5706604912       -3.1764791117       -2.4178987094
 C          1.0115444139       -2.1912803128       -1.5387933495
 C          0.2296949447       -1.8550631904       -0.4484251497
 H          0.5704042168       -1.0955680413        0.2361272702
 N          2.2382085758       -1.5439410564       -1.7334892795
 S          2.4899445203        0.0440012430       -1.2535082098
 O          1.2582984024        0.7894030365       -1.1613594600
 O          3.4680153218        0.5451637000       -2.1980848798
 C          3.2874184496       -0.1300315490        0.3301010903
 C          2.6366361003        0.1733749531        1.5079437302
 C          3.3134505297        0.0085672713        2.7076533103
 C          4.6193624984       -0.4537966924        2.7113333806
 C          5.2608789577       -0.7540445945        1.5184805807
 C          4.5910216983       -0.5910516728        0.3180300706
 H          5.0548854778       -0.7983829943       -0.6319395493
 H          6.2774957667       -1.1129058374        1.5221507309
 H          5.1388080379       -0.5794659637        3.6482882506
 H          2.8050868703        0.2412242329        3.6297523702
 H          1.6151842813        0.5226306260        1.4947421100
 H          2.6954509653       -1.7486565879       -2.6092559294
 H          1.1749829405       -3.4490419936       -3.2698813693
 H         -0.9872956027       -4.5589411874       -2.8686005793
 H         -2.4132450710       -3.8756247329       -0.9886500496
 H         -1.2506702755       -1.8659341558        1.7855598401
 C         -3.1503305375       -2.5942563804        1.1254535001
 C         -3.1277968813       -3.8797047704        1.8957834903
 C         -3.6980421378       -2.6424160086        2.5193048300
 H         -4.7672125277       -2.5762832155        2.6538702199
 H         -3.1298684465       -2.1511476101        3.2955831600
 H         -3.8065458335       -4.6669661685        1.6052469304
 H         -2.1707314924       -4.2308705631        2.2504216505
 H         -3.8622454572       -2.4950961386        0.3148724700
