  62
        -98.93545565
 C         -2.7727091225       -0.4775901104       -0.2724919486
 C         -2.0442645655        0.4512403186       -1.0529071875
 C         -2.2241626527        1.8751248967       -0.7175096792
 C         -3.0688531390        2.2282683616        0.2650822806
 C         -3.4397336416        3.6112136600        0.7392210445
 C         -2.3091687113        4.6377095715        0.8912110923
 C         -0.9573616822        4.0560796866        1.3307656251
 H         -0.5848823550        4.6274548763        2.1832702356
 H         -1.0775348123        3.0229297543        1.6634068757
 C          0.1054952740        4.1085363056        0.2310854973
 H          0.0520024074        5.0804843388       -0.2650542780
 H          1.0904599868        4.0264273636        0.6974043843
 C          0.0129200764        2.9998276946       -0.8163120765
 H          0.7538601754        3.2097009722       -1.5924850421
 H          0.2852715674        2.0455952076       -0.3537705817
 C         -1.3629789440        2.8364713045       -1.4849685264
 H         -1.2095438683        2.3858047507       -2.4691691735
 H         -1.8519962901        3.7985431434       -1.6163613178
 H         -2.1753984409        5.1755632142       -0.0462955385
 H         -2.6461433754        5.3691526461        1.6277032565
 H         -3.9260401706        3.4575709813        1.7055714539
 H         -4.1964155656        4.0115234407        0.0579886705
 O         -3.7747898539        1.3031895229        0.9751664767
 C         -3.6258327776       -0.0515150837        0.7495429083
 O         -4.3092728341       -0.7715539621        1.5054716936
 O         -1.2772017807        0.1391030197       -2.0035427574
 C         -2.6395282317       -1.9878185445       -0.4229648379
 C         -1.3648925532       -2.4232765942        0.2599519548
 C         -1.3921853766       -3.1437340015        1.4482484574
 C         -0.2179795878       -3.4478282666        2.1162475644
 C          1.0049560394       -3.0262504580        1.6241282996
 C          1.0388576902       -2.3074667168        0.4373865021
 C         -0.1337905067       -2.0312257063       -0.2457231130
 H         -0.0963567986       -1.4520076489       -1.1562319602
 N          2.2761484220       -1.8101667605       -0.0493415343
 S          2.8420067541       -0.5470217422        0.9320214644
 O          3.3664443576       -1.1289812811        2.1423069126
 O          1.8100415267        0.4519046214        1.1070605927
 C          4.1732510835        0.0970705778       -0.0617458725
 C          3.9329666254        1.1784556501       -0.8872921836
 C          4.9615657061        1.6514358270       -1.6870438375
 C          6.2030818048        1.0346034096       -1.6506880200
 C          6.4274857632       -0.0517466178       -0.8179538815
 C          5.4041548061       -0.5286824897       -0.0145322992
 H          5.5322295897       -1.3640803296        0.6534199363
 H          7.3945819553       -0.5273114497       -0.7924948331
 H          7.0008756182        1.4046243232       -2.2750991973
 H          4.7894243560        2.4964363047       -2.3341696479
 H          2.9528789043        1.6295649362       -0.8794595144
 H          2.1499126359       -1.4336690954       -0.9823900317
 H          1.9229757406       -3.2166261999        2.1559997421
 H         -0.2569850498       -4.0043317804        3.0406985878
 H         -2.3453208542       -3.4394872178        1.8631201609
 H         -3.4840859073       -2.4183686610        0.1310642601
 C         -2.7131259148       -2.4635929058       -1.8596636280
 C         -3.0442070773       -3.8995084648       -2.1296134905
 C         -4.0441391506       -2.8278438883       -2.4419826074
 H         -4.2368793442       -2.5844597391       -3.4759639764
 H         -4.9108449083       -2.7359906577       -1.8034126705
 H         -2.5492725491       -4.3962886957       -2.9497827805
 H         -3.2339141857       -4.5365483428       -1.2789150891
 H         -2.0036392933       -1.9768648743       -2.5148699312
