  62
        -98.94336182
 C         -1.2067339195       -0.6897243994        0.6291019041
 C         -1.9173825684       -0.5345770686       -0.5867403507
 C         -2.8785903555        0.5766006480       -0.6241254847
 C         -2.9635488709        1.4294771365        0.4114984289
 C         -3.8741389290        2.6234523800        0.5067088771
 C         -5.2956421582        2.2887923967        0.9795293192
 C         -6.1686632030        1.5630406729       -0.0450651377
 H         -7.1926436699        1.5874154666        0.3329262463
 H         -6.1554320987        2.1142910819       -0.9857973010
 C         -5.7695838124        0.1022239076       -0.2965439044
 H         -5.1265143064       -0.2441554038        0.5158061230
 H         -6.6629169692       -0.5260659918       -0.2874897698
 C         -5.0585297057       -0.1405940774       -1.6279350761
 H         -5.7395426309        0.0803272798       -2.4526854702
 H         -4.7915496303       -1.1988480112       -1.6860130319
 C         -3.7778229039        0.6830050752       -1.8185181853
 H         -3.2341599081        0.2834273083       -2.6783455121
 H         -4.0252727224        1.7258065140       -2.0172075817
 H         -5.2281698611        1.6900251875        1.8908688885
 H         -5.7826905261        3.2320705948        1.2372666634
 H         -3.4191288232        3.3032075561        1.2307410622
 H         -3.9178159598        3.1279093475       -0.4592234780
 O         -2.1837370102        1.3105806289        1.5191575859
 C         -1.2968900107        0.2547036953        1.6542231182
 O         -0.6414498782        0.2732690790        2.7165950426
 H          1.0004957676        0.2946793952       -0.2400958179
 C          1.3233939344       -0.6123255877       -0.7277510615
 C          0.7703902785       -1.8259261957       -0.3405785794
 C          1.1620148981       -2.9757816792       -1.0127235044
 C          2.0793891081       -2.8989964329       -2.0472435106
 C          2.6400566935       -1.6902603430       -2.4172686539
 C          2.2510805030       -0.5328228101       -1.7514994092
 N          2.7850485922        0.7185592560       -2.0909763371
 S          2.9759856467        1.8926505427       -0.9198931943
 O          1.7045664476        2.4821490139       -0.5787321537
 O          3.9563176410        2.7965966460       -1.4838919863
 C          3.6829201252        1.0430023057        0.4814993117
 C          4.9612736726        0.5378568097        0.3380177586
 C          5.5320002444       -0.1583282574        1.3901502844
 C          4.8160154184       -0.3426755316        2.5636373159
 C          3.5372726092        0.1749330881        2.6948952697
 C          2.9625099307        0.8764150163        1.6461899871
 H          1.9663715275        1.2843790839        1.7259386605
 H          2.9716923686        0.0351479856        3.6026178714
 H          5.2561533684       -0.8900297753        3.3821168218
 H          6.5288283395       -0.5568607843        1.2925831974
 H          5.4899844021        0.7109678072       -0.5850797204
 H          3.5460843431        0.7023566745       -2.7529475135
 H          3.3579821658       -1.6360610570       -3.2209735294
 H          2.3677647700       -3.7981402444       -2.5702390058
 H          0.7359200315       -3.9282179204       -0.7439967465
 C         -0.1911154272       -1.8019378934        0.8233621569
 H          0.3893377953       -1.4943174687        1.7099721060
 C         -0.7907228013       -3.1612207173        1.1537275219
 C         -2.1864087912       -3.2866797657        1.6866561424
 C         -1.8594972209       -3.7947143201        0.3163207080
 H         -1.8236208153       -4.8636657775        0.1635912751
 H         -2.2141161899       -3.2403441478       -0.5374324213
 H         -2.3729985280       -4.0015665778        2.4742347157
 H         -2.7733733637       -2.3828988026        1.7692504930
 H         -0.0557126980       -3.8317216598        1.5881606511
 O         -1.7678271961       -1.2731386364       -1.5937686411
