  62
        -98.94047078
 C          1.9848073986        1.2106134695        0.5280020980
 C          1.9678919794       -0.1142629036        1.0394216793
 C          3.1174583683       -0.9605733865        0.7055914129
 C          4.1276670183       -0.4505404045       -0.0213422809
 C          5.3970982284       -1.1636142471       -0.4005876051
 C          5.2760933092       -2.0333878871       -1.6591034684
 C          4.4683217910       -3.3196230454       -1.4827150924
 H          4.6433770867       -3.9326401625       -2.3690941359
 H          4.8508117536       -3.8726439309       -0.6242077767
 C          2.9574007004       -3.0991498979       -1.3253428927
 H          2.6987729968       -2.0929290436       -1.6641457283
 H          2.4179069498       -3.7987968425       -1.9679481763
 C          2.4311690714       -3.2933553713        0.0966988516
 H          1.3592366055       -3.0800798731        0.0892103124
 H          2.5645824624       -4.3349754617        0.3969843925
 C          3.0949778231       -2.3928610185        1.1473322578
 H          2.5105039776       -2.4478577898        2.0689872109
 H          4.1062642663       -2.7424289962        1.3543758396
 H          4.8354295211       -1.4328731681       -2.4584451990
 H          6.2886699497       -2.3040477685       -1.9672242968
 H          6.1437666679       -0.3889531737       -0.5884757478
 H          5.7355506037       -1.7768211302        0.4352061577
 O          4.1131168143        0.8234627310       -0.4887031850
 C          3.0343290529        1.6716990703       -0.2675856664
 O          3.1576182203        2.7773673896       -0.8302726880
 O          1.0343522347       -0.5644844727        1.7540604468
 C          0.7854506248        2.0764954681        0.8743316101
 C         -0.2818291456        1.9821210492       -0.1910198315
 C          0.0152201411        2.2193016365       -1.5288558522
 C         -0.9628728339        2.0975219278       -2.4992352775
 C         -2.2567570702        1.7459194537       -2.1558788637
 C         -2.5668975112        1.5191458883       -0.8225325375
 C         -1.5825310472        1.6401681067        0.1513632042
 H         -1.8272211221        1.4435681630        1.1865586269
 N         -3.8916655462        1.1611449507       -0.4871948298
 S         -4.3954041309       -0.3841418607       -0.9008228073
 O         -3.8992907469       -0.6928088326       -2.2166635275
 O         -5.8295855082       -0.4008243474       -0.7288904065
 C         -3.6435959863       -1.4399932257        0.3258850012
 C         -2.2720645878       -1.6035112290        0.3095046955
 C         -1.6731662249       -2.3356399517        1.3222636953
 C         -2.4539213176       -2.9050441752        2.3167368346
 C         -3.8314804084       -2.7458533162        2.3103171976
 C         -4.4336038586       -1.9948929775        1.3136676745
 H         -5.4981047768       -1.8282018389        1.2778787715
 H         -4.4344523151       -3.1928509761        3.0843893024
 H         -1.9804079537       -3.4716704497        3.1029870118
 H         -0.5984701136       -2.4207347062        1.3491705324
 H         -1.6891388222       -1.1536852380       -0.4790539336
 H         -4.1245258889        1.3367553790        0.4806234602
 H         -3.0251688293        1.6288508145       -2.9021809502
 H         -0.7153870894        2.2789103392       -3.5344137766
 H          1.0227951582        2.4951207364       -1.8013457603
 H          0.3732393150        1.6403984330        1.7947517784
 C          1.1266684783        3.5284223202        1.1452872634
 C          0.2120955258        4.3423380278        2.0087170145
 C          1.5619789934        3.9373255184        2.5189089705
 H          2.3301316660        4.6901543761        2.6110134416
 H          1.6115290285        3.1695257005        3.2773024969
 H          0.0484022008        5.3771939272        1.7505995570
 H         -0.6542138355        3.8519992734        2.4262256174
 H          1.5997474836        4.0221917905        0.3068968933
