  62
        -98.93686358
 C         -1.6851796498       -1.4380589232        0.1270097576
 C         -1.9247717691       -0.3663332924       -0.7661269674
 C         -3.2933795281        0.1784612890       -0.7749470547
 C         -4.2220156765       -0.3445554633        0.0447238401
 C         -5.6262564176        0.1615718582        0.2124811062
 C         -5.6276784655        1.4283626506        1.0920194107
 C         -6.0652452944        2.7009401336        0.3661026649
 H         -7.1503177012        2.6844934691        0.2441073394
 H         -5.8197251728        3.5463655876        1.0125403130
 C         -5.4428272883        2.9315889378       -1.0144244682
 H         -5.6319318128        3.9745283713       -1.2776517245
 H         -5.9626394140        2.3247604625       -1.7573382378
 C         -3.9368855826        2.6609719513       -1.1263570821
 H         -3.5023005815        3.4267291606       -1.7724351060
 H         -3.4556612933        2.7579179660       -0.1525501152
 C         -3.5760899845        1.2955612486       -1.7415628454
 H         -4.3638387694        0.9879422236       -2.4345278962
 H         -2.6545024187        1.4068576933       -2.3202273956
 H         -6.2901993277        1.2779493757        1.9457421019
 H         -4.6225194165        1.5659426719        1.4966836855
 H         -6.2023742962       -0.6317206972        0.6892169511
 H         -6.0616109440        0.3713884229       -0.7620029561
 O         -3.9565671627       -1.3713204252        0.8920646912
 C         -2.6980850216       -1.9416329131        0.9508027157
 O         -2.6039952573       -2.8839749294        1.7621714163
 O         -1.0546422014        0.1365666134       -1.5281513528
 C         -0.3433981824       -2.1432777395        0.2568841532
 C          0.6342961645       -1.3674644878        1.1058304018
 C          1.2639542777       -1.9565418586        2.1957804073
 C          2.1939552742       -1.2519509746        2.9413014725
 C          2.5122759055        0.0555899265        2.6186762503
 C          1.8807065324        0.6537496412        1.5372846625
 C          0.9581026541       -0.0570022923        0.7852731210
 H          0.4847342273        0.4123930817       -0.0642822496
 N          2.2135756648        1.9841776775        1.1838279323
 S          3.7444050903        2.1339814758        0.5128836629
 O          4.7250248349        1.8890365099        1.5395977802
 O          3.7818346381        3.4375985569       -0.1100724332
 C          3.8073648763        0.8466668857       -0.7191110196
 C          4.2952081874       -0.3970134159       -0.3724940069
 C          4.2520081007       -1.4160787058       -1.3097950266
 C          3.7197114487       -1.1758448853       -2.5670310476
 C          3.2302201030        0.0780148864       -2.8983614295
 C          3.2682487000        1.1000231311       -1.9642722255
 H          2.8982610894        2.0890870417       -2.1834472185
 H          2.8111888035        0.2600253015       -3.8751020481
 H          3.6855458192       -1.9698397331       -3.2967362712
 H          4.6273705252       -2.3936980497       -1.0537173798
 H          4.7004344203       -0.5417325151        0.6155040582
 H          1.5432668704        2.3843459401        0.5406486981
 H          3.2452772779        0.6160120541        3.1760643012
 H          2.6754624626       -1.7250715550        3.7835136825
 H          1.0148078549       -2.9730381896        2.4628320445
 H         -0.5604477270       -3.0877928302        0.7729889452
 C          0.2889882204       -2.4665264568       -1.0848285828
 C          1.1993702413       -3.6504727877       -1.1921947671
 C         -0.1583453605       -3.6887673366       -1.8256745251
 H         -0.2318077309       -3.6399319878       -2.9015188284
 H         -0.9215535482       -4.2995628789       -1.3648695888
 H          2.0626329896       -3.5768771736       -1.8339560542
 H          1.3584587758       -4.2423148242       -0.3037514658
 H          0.5297272550       -1.5880594043       -1.6690047464
