  62
        -98.93160071
 C         -2.7691137728        0.3846073207        0.2517993688
 C         -2.3206170370        1.2382749447       -0.7859845334
 C         -1.6294241956        2.4647407890       -0.3496616739
 C         -1.4689089986        2.7225594825        0.9587225476
 C         -0.7565113758        3.9041951715        1.5588160548
 C          0.7607264788        3.9465512374        1.2875132579
 C          1.1590602148        4.8339353900        0.1012880510
 H          0.3747124900        5.5743046293       -0.0624933301
 H          2.0633591299        5.3868049182        0.3636581502
 C          1.4488795868        4.1018187365       -1.2130914517
 H          2.4487057974        3.6636877223       -1.1653062247
 H          1.4499334913        4.8428745955       -2.0160720094
 C          0.4828017435        2.9746316306       -1.5813974473
 H          0.7001290712        2.0911426179       -0.9757034619
 H          0.6770184351        2.6811194836       -2.6159669437
 C         -1.0107891846        3.3200852477       -1.4175483899
 H         -1.1398659531        4.3768078341       -1.1871227015
 H         -1.5438928787        3.0981132107       -2.3446712825
 H          1.1251356784        2.9282576357        1.1443426038
 H          1.2377017008        4.3402127387        2.1865750527
 H         -0.9297175701        3.8372916358        2.6346263232
 H         -1.2219583174        4.8244949861        1.1991670928
 O         -1.9745402953        1.9103709363        1.9264226555
 C         -2.5847398174        0.7151309057        1.5977668545
 O         -2.9441645086        0.0368503203        2.5829894253
 O         -2.4758761411        1.0224025194       -2.0158350030
 C         -3.3313615080       -1.0145588462        0.0426028151
 C         -2.2637162129       -2.0192557858        0.4088581918
 C         -2.5726974933       -3.2114662386        1.0510202272
 C         -1.5727407695       -4.1122354002        1.3769009912
 C         -0.2481354264       -3.8282395329        1.1021276259
 C          0.0746449802       -2.6231408726        0.4843581599
 C         -0.9344763915       -1.7498206974        0.1136620509
 H         -0.6756471936       -0.8326937360       -0.3948002223
 N          1.4178477424       -2.2660737688        0.2849424966
 S          1.8571722355       -0.7748522339       -0.3403639624
 O          1.3373806814        0.2538223031        0.5248884796
 O          1.5290290257       -0.6810906762       -1.7461737549
 C          3.6250083196       -0.8906225856       -0.1476762893
 C          4.4070088634       -1.2547009963       -1.2272163468
 C          5.7775951596       -1.3700925472       -1.0546117980
 C          6.3395916083       -1.1228333051        0.1887002246
 C          5.5423274396       -0.7555640413        1.2628022314
 C          4.1716399457       -0.6383808886        1.0962170386
 H          3.5124116818       -0.3480352197        1.8980318205
 H          5.9826876137       -0.5602674071        2.2272200806
 H          7.4061123030       -1.2131908497        0.3210938346
 H          6.4001085903       -1.6515792625       -1.8885737173
 H          3.9262516196       -1.4266676973       -2.1767988528
 H          2.0353756002       -3.0217420607        0.0311911556
 H          0.5337071221       -4.5184533471        1.3772651686
 H         -1.8271456144       -5.0399360469        1.8665554031
 H         -3.5993574885       -3.4224491388        1.3117390470
 H         -4.1496736983       -1.1314179410        0.7732848506
 C         -3.9139467758       -1.2628978375       -1.3389778586
 C         -3.1493077119       -1.9516700299       -2.4249462429
 C         -4.3043528887       -2.6454848721       -1.7712246011
 H         -5.2177409465       -2.7645508369       -2.3338937218
 H         -4.0811708834       -3.4657991234       -1.1068723537
 H         -3.2584629902       -1.5754436383       -3.4303920919
 H         -2.1491185338       -2.2908945109       -2.1992848780
 H         -4.5653281880       -0.4547074668       -1.6519477208
