  62
        -98.94499939
 C         -2.4531312909       -1.2284642892       -0.1241091989
 C         -3.4025645807       -0.7269434384        0.8051089908
 C         -4.2357963104        0.3920135216        0.3497916602
 C         -4.0658827503        0.8709091109       -0.8957145600
 C         -4.8047523100        2.0419367007       -1.4740973607
 C         -4.0451006596        3.3533979207       -1.2302362114
 C         -3.5946631196        3.5469733514        0.2178962685
 H         -2.8426875198        2.7921119913        0.4614055089
 H         -3.0993465193        4.5187606012        0.2761495679
 C         -4.7295015796        3.4874232022        1.2501991785
 H         -4.6002926693        4.3086135526        1.9582346880
 H         -5.6891385595        3.6353656022        0.7536974784
 C         -4.7756515199        2.1961339627        2.0692641192
 H         -3.7867368700        1.9939550227        2.4885841393
 H         -5.4616614499        2.3494111834        2.9064498791
 C         -5.2448931903        0.9448479424        1.3163580799
 H         -6.1896917702        1.1522493524        0.8101481098
 H         -5.4151731505        0.1565482829        2.0552602703
 H         -3.1573152296        3.3641967401       -1.8673287714
 H         -4.6870299194        4.1845526207       -1.5278678619
 H         -4.9075846800        1.8868981502       -2.5494350706
 H         -5.7957569399        2.0955022713       -1.0275696107
 O         -3.1566008804        0.3604624301       -1.7625516898
 C         -2.3188160207       -0.6853014899       -1.4017314892
 O         -1.5324987008       -1.0235694906       -2.3096194390
 O         -3.5490450009       -1.2010938477        1.9628260211
 C         -1.5640800312       -2.3689496591        0.3485735717
 C         -0.1964027210       -1.8233334993        0.6817427014
 C          0.1469704991       -1.5489630587        2.0014723613
 C          1.3748749592       -0.9910894589        2.3095374110
 C          2.2816092693       -0.6878073197        1.3093449808
 C          1.9414846192       -0.9434832803       -0.0122619190
 C          0.7181245891       -1.5221762701       -0.3173420787
 H          0.4540390990       -1.6942545106       -1.3495726986
 N          2.8473275493       -0.6160613111       -1.0395055592
 S          3.4200874097        0.9644858087       -1.0673491901
 O          2.4839189800        1.8814003893       -0.4574382806
 O          3.7705880398        1.2230918479       -2.4470452302
 C          4.9142241897        0.8812664988       -0.1007829300
 C          5.8785536395       -0.0343059316       -0.4746217695
 C          7.0497720094       -0.1109554315        0.2618304605
 C          7.2372830697        0.7262145490        1.3517441000
 C          6.2612722599        1.6426408495        1.7119554295
 C          5.0867084599        1.7238052594        0.9798423495
 H          4.2971619601        2.4160404097        1.2259376691
 H          6.4087376401        2.2929942099        2.5591367692
 H          8.1494339097        0.6641519491        1.9239320701
 H          7.8109458693       -0.8222753719       -0.0154106391
 H          5.6938617693       -0.6633509521       -1.3292765892
 H          2.5083656892       -0.8749377915       -1.9559080091
 H          3.2360332494       -0.2435739698        1.5404892506
 H          1.6277859093       -0.7860742984        3.3386132509
 H         -0.5683545910       -1.7595797381        2.7835789114
 H         -2.0225673813       -2.7177358485        1.2834937419
 C         -1.5134833815       -3.5299232097       -0.6230243376
 C         -1.0379277519       -4.8639907995       -0.1336377469
 C         -2.4853453018       -4.6588170893       -0.4626497370
 H         -2.8853758919       -5.1226668797       -1.3518056567
 H         -3.1914254318       -4.5984123287        0.3526165830
 H         -0.4410790320       -5.4724639201       -0.7954406265
 H         -0.7615598319       -4.9427022290        0.9068190832
 H         -1.2575797214       -3.2417728803       -1.6342544978
