  62
        -98.93938179
 C          2.0920943451        0.1820779453       -1.0864944680
 C          2.9341568362       -0.9091119033       -0.7565656492
 C          4.3361735303       -0.5693400670       -0.4608880910
 C          4.7369619368        0.7127962569       -0.5142103244
 C          6.1166508133        1.1978068443       -0.1775818961
 C          6.2261404092        1.5773756339        1.3058375201
 C          5.6846169148        0.5109882806        2.2579920927
 H          5.8431674566        0.8740370502        3.2758041827
 H          4.6053959344        0.4204076493        2.1142204858
 C          6.3352803929       -0.8704614956        2.1003779346
 H          7.2807387777       -0.7755508210        1.5650881666
 H          6.5632372152       -1.2649109443        3.0928742066
 C          5.4576668223       -1.9087580295        1.3990518997
 H          4.4748196684       -1.9387860452        1.8757455873
 H          5.9181434974       -2.8907729092        1.5358882411
 C          5.2566072965       -1.7041074114       -0.1077677666
 H          6.2256368570       -1.5799481338       -0.5951519335
 H          4.7844090268       -2.6074263071       -0.5048140626
 H          7.2750606501        1.7743172439        1.5350208465
 H          5.6635804337        2.4995962502        1.4692924840
 H          6.8385813928        0.4199572293       -0.4187127705
 H          6.3288275450        2.0789298484       -0.7855523258
 O          3.9023973261        1.7332937465       -0.8404172121
 C          2.5691564825        1.4953724828       -1.1238280510
 O          1.9158187573        2.5219348076       -1.4016466862
 H         -1.5460962909        1.5687808858       -0.9007116284
 C         -1.3022529037        0.9131367985       -0.0784881044
 C         -0.2212569288        0.0489936843       -0.1699599157
 C          0.0682950434       -0.7790195616        0.9115522963
 C         -0.7020478785       -0.7307464749        2.0580803685
 C         -1.7863708010        0.1262393186        2.1418997286
 C         -2.0891066378        0.9501220838        1.0655543573
 N         -3.1945215329        1.8245087829        1.1089939652
 S         -4.4128512704        1.5786764033       -0.0142476967
 O         -3.8954859394        1.7658863721       -1.3443413985
 O         -5.4883740543        2.4533419976        0.3939364689
 C         -4.8881914030       -0.1235565743        0.2306443006
 C         -5.9251277234       -0.4130476351        1.0960285885
 C         -6.2427602355       -1.7393446519        1.3410842792
 C         -5.5141686721       -2.7481790286        0.7288663145
 C         -4.4739013808       -2.4412847353       -0.1349403110
 C         -4.1553604698       -1.1165571907       -0.3881439399
 H         -3.3570960615       -0.8407552784       -1.0571242023
 H         -3.9062391065       -3.2238782375       -0.6125711601
 H         -5.7585713268       -3.7804116555        0.9238321770
 H         -7.0533988096       -1.9818290386        2.0092293763
 H         -6.4670155641        0.4029432465        1.5464221150
 H         -3.6031997451        1.9143082118        2.0291506829
 H         -2.3909853812        0.1610939242        3.0357220439
 H         -0.4629939508       -1.3735687966        2.8915202313
 H          0.8986131685       -1.4640823540        0.8359966154
 C          0.6185304380        0.0199994631       -1.4222235644
 H          0.3583688520        0.9146761252       -2.0098697499
 C          0.3360574675       -1.1989147901       -2.2938311202
 C         -0.5963826999       -2.2966051851       -1.8848379282
 C         -1.0038061213       -1.3322049794       -2.9554256355
 H         -1.0446532840       -1.6757369306       -3.9781339345
 H         -1.7478922623       -0.5843902460       -2.7185529116
 H         -0.3349462376       -3.3041282298       -2.1700558421
 H         -1.0751961422       -2.2263918662       -0.9205665233
 H          1.1979013352       -1.4932910574       -2.8819904859
 O          2.5573311855       -2.1074996605       -0.7048208778
