  62
        -98.93897634
 C          1.9030274947        1.3652647945        0.2982240367
 C          2.5732938957        0.7439190288       -0.7805968030
 C          3.7576857768       -0.0662764702       -0.4385992881
 C          4.1252818630       -0.1929113365        0.8502017895
 C          5.2989988759       -0.9073964325        1.4875564109
 C          6.1213793862       -1.9201579734        0.6952255691
 C          5.3738973774       -3.2005339444        0.3235784254
 H          6.0194356855       -3.7978019795       -0.3239233812
 H          5.1947473054       -3.7756482458        1.2356637917
 C          4.0264119110       -3.0017657484       -0.3664122689
 H          3.6027504781       -3.9902024086       -0.5648815309
 H          3.3389640102       -2.4899115706        0.3105599934
 C          4.0743287739       -2.2432249493       -1.6913864696
 H          4.7818064816       -2.7284099473       -2.3666206062
 H          3.0807999004       -2.3093852182       -2.1437564920
 C          4.4370239823       -0.7516342513       -1.5887854170
 H          5.5138441443       -0.6082888724       -1.5421508358
 H          4.0778403382       -0.2558006819       -2.4953249756
 H          6.5418060986       -1.4535313587       -0.1906454770
 H          6.9629959975       -2.2039323895        1.3329284590
 H          5.9708894503       -0.1168181172        1.8397366135
 H          4.9006617891       -1.3934268756        2.3840250864
 O          3.4314157797        0.4124907642        1.8595501303
 C          2.3109539063        1.1874268656        1.6176918200
 O          1.7700318803        1.6462978530        2.6449953166
 O          2.2089531050        0.8618332713       -1.9789113647
 C          0.6776701611        2.2226869295        0.0397494735
 C         -0.3950066959        1.4029860935       -0.6365696967
 C         -1.1161232600        1.8437525329       -1.7379142837
 C         -2.0869163883        1.0381028160       -2.3092064983
 C         -2.3671211603       -0.2125599269       -1.7920948874
 C         -1.6663107536       -0.6541801493       -0.6761909597
 C         -0.6968146103        0.1547007240       -0.1048655022
 H         -0.1506590516       -0.1924020904        0.7642361909
 N         -1.9609621551       -1.9142485376       -0.1274478033
 S         -3.5744467490       -2.3116651450        0.0771436303
 O         -3.5996346642       -3.2344420278        1.1905087697
 O         -4.1115139924       -2.8110615923       -1.1640474358
 C         -4.3824454859       -0.7806291034        0.5099672244
 C         -3.9649234093       -0.1253590584        1.6515555441
 C         -4.5542439967        1.0832915863        1.9842219866
 C         -5.5465303496        1.6135286047        1.1736095720
 C         -5.9590651420        0.9405186354        0.0343352941
 C         -5.3711184407       -0.2676953726       -0.3046437225
 H         -5.6584694140       -0.8222570945       -1.1829884726
 H         -6.7323825089        1.3542002489       -0.5925037858
 H         -5.9999909097        2.5568242833        1.4339698486
 H         -4.2334456965        1.6073317487        2.8703845204
 H         -3.1935205351       -0.5648275179        2.2640654881
 H         -1.4207696545       -2.1412267953        0.6940831748
 H         -3.1069623993       -0.8585286104       -2.2362389500
 H         -2.6303483334        1.3883337040       -3.1732217511
 H         -0.9115877408        2.8146272511       -2.1575036544
 H          0.3025637175        2.5200668835        1.0301676203
 C          1.0642589321        3.4691593365       -0.7285105284
 C          0.2828078763        4.7357661458       -0.5551413777
 C          1.6614397448        4.6210774171        0.0205537858
 H          2.4641357543        5.1761698046       -0.4412203207
 H          1.7649632152        4.5155718089        1.0910244695
 H          0.1400659867        5.3755099338       -1.4128814084
 H         -0.5528672562        4.7183663462        0.1277871904
 H          1.4712526279        3.2445656984       -1.7075308734
