  62
        -98.93893675
 C          1.9044678001        0.2893855296        0.0043987097
 C          2.9873905401        1.0020770092        0.5699128400
 C          4.2808255501        0.3004188290        0.6344238397
 C          4.3697490599       -0.9618263708        0.1751176391
 C          5.5324837998       -1.9321462410        0.1489062587
 C          6.9620441898       -1.4469175513        0.3758765290
 C          7.5127630900       -0.5394396408       -0.7235708906
 H          8.4956868100       -0.1813650811       -0.4096205804
 H          7.6497249999       -1.1350941104       -1.6296876609
 C          6.6405917401        0.6593237395       -1.0883382900
 H          5.6927070101        0.3105149398       -1.5035240302
 H          7.1516255102        1.2157476898       -1.8788344798
 C          6.3545473002        1.6322354790        0.0539635404
 H          5.8675727504        2.5107276992       -0.3777582592
 H          7.2945616103        1.9581284586        0.5032907906
 C          5.4375361701        1.0960897686        1.1672530901
 H          5.9978435300        0.5174200381        1.8975988499
 H          5.0046357602        1.9538011984        1.6900636305
 H          7.5908293397       -2.3408408214        0.4106960086
 H          7.0472698699       -0.9650620717        1.3453309692
 H          5.4755301997       -2.4357833805       -0.8213856715
 H          5.3012886897       -2.6926030613        0.9031197383
 O          3.2886005198       -1.6180940104       -0.3398118312
 C          2.0424881299       -1.0207067602       -0.4495330710
 O          1.1716186998       -1.7509216899       -0.9585893013
 O          2.8790714103        2.1775534890        1.0112959506
 C          0.5545779102        0.9787516798       -0.1026493401
 C         -0.4515312300        0.2270199995        0.7316709296
 C         -0.3016313600        0.2392663889        2.1172085396
 C         -1.1676727001       -0.4672383314        2.9276770292
 C         -2.2069655502       -1.1953594910        2.3740614288
 C         -2.3640912002       -1.2177667403        0.9936818488
 C         -1.4921918700       -0.5030682301        0.1811804692
 H         -1.6223255100       -0.5591780395       -0.8857516808
 N         -3.3919802102       -1.9764532899        0.4130182284
 S         -4.3270924901       -1.3913012792       -0.8393423513
 O         -5.4135827003       -2.3396748690       -0.9481478418
 O         -3.5306698401       -1.1917289487       -2.0221734612
 C         -4.9521593799        0.1683808206       -0.2404017106
 C         -6.1266588100        0.1716063904        0.4871931694
 C         -6.5925689098        1.3691750802        1.0046333899
 C         -5.8745014297        2.5368059002        0.7944195805
 C         -4.6963919696        2.5162520704        0.0640650805
 C         -4.2268339198        1.3220243106       -0.4602218400
 H         -3.3176042098        1.2701970308       -1.0357319000
 H         -4.1393933095        3.4247224004       -0.1009003390
 H         -6.2356680195        3.4689910001        1.1992887009
 H         -7.5106929798        1.3887716901        1.5694228299
 H         -6.6576842101       -0.7574272896        0.6173880289
 H         -3.9621302903       -2.4822257102        1.0748181182
 H         -2.8818992203       -1.7546887912        3.0040522685
 H         -1.0370934401       -0.4508052219        3.9991396692
 H          0.5150508601        0.8035942086        2.5460978199
 H          0.7022598003        1.9701473896        0.3491186404
 C          0.1531127402        1.1615622306       -1.5502374100
 C         -0.8051311796        2.2513462909       -1.9242879195
 C          0.6435231504        2.3684076408       -2.2904056694
 H          0.9265049604        2.2574748813       -3.3264792194
 H          1.2543998905        3.0719184605       -1.7437144490
 H         -1.5189570796        2.0608972013       -2.7122137096
 H         -1.1743528496        2.8827372205       -1.1300429592
 H          0.1052977201        0.2292663808       -2.1017983504
