  62
        -98.94396776
 C         -1.8811848806       -1.0462423105       -0.0035490309
 C         -2.3785103105       -0.2764975112        1.0817184596
 C         -2.9756728108        1.0214796489        0.7500203404
 C         -2.9957875611        1.4219978496       -0.5339301594
 C         -3.6003192315        2.7048534297       -1.0247214786
 C         -5.0742968315        2.5172010296       -1.4102619384
 C         -5.9035955212        1.8008027689       -0.3444721587
 H         -6.9310628212        1.7516397089       -0.7111239985
 H         -5.5462986910        0.7730584289       -0.2482047393
 C         -5.8833426411        2.4750581382        1.0344183317
 H         -6.9029955010        2.5063887978        1.4238207419
 H         -5.5415111413        3.5060610683        0.9373572122
 C         -5.0290845307        1.7549060278        2.0792800211
 H         -5.3037448305        0.6977424677        2.1113163706
 H         -5.2576247006        2.1829342872        3.0587843714
 C         -3.5108945908        1.8520216582        1.8826559509
 H         -3.2206960010        2.8977648683        1.7606831714
 H         -3.0323038906        1.4661102278        2.7873913506
 H         -5.1186378316        1.9313089501       -2.3312824787
 H         -5.5052783917        3.4996163096       -1.6114337878
 H         -3.0397384817        3.0329599703       -1.9020507285
 H         -3.5097084715        3.4609669593       -0.2470038682
 O         -2.5002271512        0.6690077302       -1.5459140299
 C         -1.9199712809       -0.5688828298       -1.3134904306
 O         -1.4995512610       -1.1159269392       -2.3551923410
 O         -2.3238509502       -0.6657516518        2.2789590794
 C         -1.2256976902       -2.3699454806        0.3609964983
 C          0.2604173198       -2.1536408404        0.5185657881
 C          0.8977595400       -2.3557871109        1.7369091079
 C          2.2468972200       -2.0819167307        1.8830204078
 C          2.9814454197       -1.5780745500        0.8236653680
 C          2.3501926494       -1.3706808895       -0.3949425518
 C          1.0094526595       -1.6784706697       -0.5489348717
 H          0.5302022393       -1.5015057492       -1.5007365716
 N          3.0786485191       -0.7692292388       -1.4589089716
 S          3.0256195688        0.9159510512       -1.3351074507
 O          1.7177088888        1.3782155307       -0.9204609502
 O          3.5082001585        1.4203331319       -2.6024111705
 C          4.2167988390        1.2479994607       -0.0569959908
 C          3.7756363091        1.5620774600        1.2133275495
 C          4.7123520693        1.7850695696        2.2103834994
 C          6.0650479992        1.6902891400        1.9200894092
 C          6.4913652991        1.3755987808        0.6381486089
 C          5.5602022189        1.1496678211       -0.3630157910
 H          5.8429740488        0.9067693417       -1.3737364112
 H          7.5439914091        1.3043405211        0.4167939187
 H          6.7909780294        1.8634898098        2.6987702191
 H          4.3816449594        2.0286688190        3.2072109696
 H          2.7134533092        1.6219319897        1.3915705197
 H          2.6952396590       -1.0155125184       -2.3630106617
 H          4.0282339897       -1.3448652798        0.9304828179
 H          2.7275788602       -2.2468679911        2.8348437777
 H          0.3207489102       -2.7082538414        2.5791760778
 H         -1.6322751400       -2.6334377712        1.3467823682
 C         -1.5224691302       -3.5026779201       -0.5998428622
 C         -1.3718344998       -4.9150678903       -0.1223431730
 C         -2.7366096200       -4.3523807905       -0.3801615925
 H         -3.2856420601       -4.6957161601       -1.2439814526
 H         -3.3617836899       -4.1203054310        0.4696900378
 H         -0.9805523398       -5.6502905999       -0.8083832335
 H         -1.0731960396       -5.0666390808        0.9037222168
 H         -1.2498457604       -3.2839015695       -1.6238882322
