  62
        -98.94102552
 C         -2.6883260785        0.0135562284       -0.1998241047
 C         -2.5978652649        0.8827961495        0.9192844534
 C         -2.1560134581        2.2535801925        0.6506824516
 C         -1.8851662151        2.6273505533       -0.6125294884
 C         -1.4155503995        3.9852124016       -1.0572768475
 C          0.1017442999        4.1765170491       -0.9250366821
 C          0.6041297902        4.3768387141        0.5053890975
 H          1.6300341447        4.7437993577        0.4363922145
 H          0.0110667720        5.1499329767        0.9958813680
 C          0.5983855413        3.1005169251        1.3580485062
 H          0.5501448522        2.2220465624        0.7086483173
 H          1.5412744713        3.0208759175        1.9052164955
 C         -0.5250313593        3.0224853977        2.3926476125
 H         -0.3782021760        3.7965682852        3.1499524924
 H         -0.4561642017        2.0484938936        2.8845216967
 C         -1.9400644155        3.1681621503        1.8180212871
 H         -2.6544111840        2.8872811465        2.5960809465
 H         -2.1236951193        4.2029080195        1.5288556602
 H          0.6029740231        3.3089520495       -1.3628432706
 H          0.3741602656        5.0561755418       -1.5131718029
 H         -1.6862023623        4.0787166461       -2.1112156861
 H         -1.9347326429        4.7601257638       -0.4925401156
 O         -2.0261161548        1.7824125599       -1.6649542439
 C         -2.3676037031        0.4484496742       -1.4860174322
 O         -2.3527936246       -0.2079013531       -2.5483288411
 O         -2.8799926891        0.5209281070        2.0936060494
 C         -3.0101214122       -1.4382761485        0.1079857601
 C         -1.7305132321       -2.1933122830        0.3943006820
 C         -1.6574792507       -3.1512146185        1.3995849398
 C         -0.4587146548       -3.7734825881        1.7012191296
 C          0.7020029100       -3.4353878711        1.0252221046
 C          0.6325271959       -2.4971418935        0.0091545801
 C         -0.5754461496       -1.9030223603       -0.3143540350
 H         -0.5941859014       -1.1644455679       -1.1035641221
 N          1.8330538303       -2.0487490499       -0.6294364287
 S          2.1592342193       -0.4485973970       -0.1649042070
 O          1.7384683568       -0.2868230034        1.2037123664
 O          1.6177650102        0.4816245355       -1.1355810231
 C          3.9400881321       -0.4315769778       -0.2457458443
 C          4.5848107152        0.1924771750       -1.2949697851
 C          5.9698201484        0.1543424460       -1.3483931125
 C          6.6808330602       -0.5077219625       -0.3595209392
 C          6.0184052538       -1.1312370869        0.6878304855
 C          4.6349130698       -1.0949610461        0.7471721715
 H          4.0746893599       -1.5562891093        1.5435558153
 H          6.5746075162       -1.6440622295        1.4558879380
 H          7.7580420519       -0.5369021472       -0.4045204190
 H          6.4868276684        0.6399686522       -2.1603642899
 H          3.9910932115        0.6991420615       -2.0389326515
 H          1.7441184630       -2.0560112692       -1.6376393443
 H          1.6515207496       -3.8763054696        1.2805503335
 H         -0.4215930809       -4.5072771694        2.4916949657
 H         -2.5447171261       -3.3860732548        1.9685797466
 H         -3.5951839747       -1.4199926325        1.0384140808
 C         -3.8229014177       -2.1476770983       -0.9563185887
 C         -4.7069610137       -3.2932274395       -0.5676967998
 C         -5.3120714733       -1.9839538259       -0.9740321258
 H         -5.8077947203       -1.9120934651       -1.9300345381
 H         -5.7533284503       -1.3652944917       -0.2061995979
 H         -4.7882464815       -4.1294244126       -1.2446661271
 H         -4.7504534460       -3.5650226951        0.4756734769
 H         -3.3189694944       -2.1997882176       -1.9127080387
