  62
        -98.94250519
 C         -0.6536596384       -1.7415691721       -0.0868871553
 C         -1.8321742405       -1.7774890934        0.6896853675
 C         -2.9362680939       -0.9042077702        0.2529308574
 C         -2.7516968804       -0.1065778723       -0.8136683006
 C         -3.7420727655        0.8430022302       -1.4338574546
 C         -3.6123624674        2.2612887890       -0.8551478479
 C         -4.4319618823        2.5254196947        0.4064691891
 H         -4.1509471016        3.5144024191        0.7764178881
 H         -5.4927850626        2.5598973469        0.1491676280
 C         -4.2321815028        1.5062443044        1.5304723901
 H         -3.1699610736        1.2701535336        1.6286451287
 H         -4.5420188758        1.9728809406        2.4678539713
 C         -5.0423469701        0.2181567416        1.3217480550
 H         -5.7563009104        0.3710733378        0.5127676780
 H         -5.6305726626        0.0114712955        2.2185080044
 C         -4.2086290562       -1.0384611247        1.0453003460
 H         -3.8947650140       -1.4806051560        1.9967178045
 H         -4.8429413728       -1.7850512352        0.5540497824
 H         -3.9223585300        2.9807888324       -1.6158467582
 H         -2.5568542211        2.4407119688       -0.6418271677
 H         -4.7541509953        0.4654724944       -1.3195831676
 H         -3.5018739153        0.8798078661       -2.4985469533
 O         -1.5699399987       -0.0487810769       -1.4897003855
 C         -0.5030991523       -0.8700475404       -1.1649964989
 O          0.4955684119       -0.7368378711       -1.8952049749
 O         -1.9665876102       -2.5236446119        1.6996325688
 C          0.4731976419       -2.6995788359        0.2428032615
 C          1.7911686733       -1.9936373091        0.4395779498
 C          3.0043283140       -2.5889588195        0.1108517454
 C          4.1977077700       -1.9276256715        0.3387938322
 C          4.2090008483       -0.6575833485        0.8848642529
 C          3.0018763362       -0.0539869444        1.2180271877
 C          1.8089851955       -0.7269419014        1.0073132489
 H          0.8810308413       -0.2474633068        1.2830395019
 N          2.9749122652        1.2356090055        1.7743931607
 S          1.7810108574        2.3103013196        1.3341582205
 O          2.3143594243        3.6040391143        1.7128956850
 O          0.5274471395        1.9562850608        1.9550118136
 C          1.6190794542        2.2487860821       -0.4409008905
 C          2.7070272463        1.9923591292       -1.2492841413
 C          2.5331999125        2.0046206328       -2.6235146807
 C          1.2887885850        2.2824844138       -3.1645240335
 C          0.2086959398        2.5506189898       -2.3402581014
 C          0.3770271902        2.5330239010       -0.9667279892
 H         -0.4349788655        2.7185495451       -0.2802618746
 H         -0.7638781583        2.7566300389       -2.7581727368
 H          1.1564955441        2.2812445146       -4.2349702808
 H          3.3695884326        1.7879033662       -3.2684339670
 H          3.6681855565        1.7727860787       -0.8142136951
 H          3.8732555813        1.6907480109        1.8474249929
 H          5.1387918683       -0.1367344590        1.0563330041
 H          5.1309940276       -2.4037310896        0.0800043536
 H          3.0140140854       -3.5749278024       -0.3237826847
 H          0.1912012642       -3.1646754279        1.2003378716
 C          0.5401434308       -3.7822536168       -0.8189106911
 C          0.8967089172       -5.1922378376       -0.4558329314
 C         -0.5128996533       -4.8483875586       -0.8288380879
 H         -0.8964086981       -5.1874722201       -1.7794287399
 H         -1.2567273357       -4.8130436357       -0.0460788070
 H          1.4814873560       -5.7724819517       -1.1537679138
 H          1.1045259851       -5.4058639396        0.5818488651
 H          0.8721100955       -3.3989205628       -1.7775805275
