  62
        -98.93677859
 C         -2.4586534094       -0.4904023404       -0.1640805883
 C         -2.0263671592       -1.5155015699       -1.0368964489
 C         -1.3115783884       -2.6371708697       -0.4168797196
 C         -1.1276916080       -2.6405270001        0.9158841204
 C         -0.4198926971       -3.7220846301        1.6805841197
 C          1.0720443628       -3.4157393194        1.8611205193
 C          1.7939950421       -3.0335724485        0.5687111492
 H          1.4341053715       -2.0570657686        0.2363746297
 H          2.8519507921       -2.9111684681        0.8147917588
 C          1.6511850022       -4.0442700582       -0.5769750211
 H          2.6268312521       -4.1689301375       -1.0512534115
 H          1.3528012028       -5.0166936685       -0.1822800714
 C          0.6756358116       -3.6167137883       -1.6756949006
 H          0.8870230910       -2.5827027080       -1.9637352703
 H          0.8507481216       -4.2462356678       -2.5526943709
 C         -0.8138125882       -3.7272044791       -1.3233871801
 H         -1.0203092976       -4.7114892994       -0.8965991204
 H         -1.3855437186       -3.6273330491       -2.2509325699
 H          1.1705730426       -2.5791797396        2.5566598696
 H          1.5504049234       -4.2921002093        2.3037495088
 H         -0.8845338468       -3.7991566007        2.6655584199
 H         -0.5459611569       -4.6673366999        1.1552830594
 O         -1.5703548182       -1.6462800007        1.7260918909
 C         -2.1982845689       -0.5235625908        1.2068323016
 O         -2.4890116490        0.3383740187        2.0560369020
 O         -2.2382718197       -1.4947249395       -2.2821458488
 C         -3.1208567003        0.7470358895       -0.7633754276
 C         -2.2705370307        1.9320532998       -0.3687490675
 C         -2.6436504111        3.0940427993        0.2928623431
 C         -1.6943518714        4.0444698397        0.6379024231
 C         -0.3532408014        3.8549787605        0.3681770025
 C          0.0334988289        2.7020364109       -0.3050408680
 C         -0.9238946908        1.7862562306       -0.6964800480
 H         -0.6023646305        0.9009335209       -1.2266520985
 N          1.3842622290        2.4206785817       -0.5930978686
 S          1.8340911899        0.8079287118       -0.3117882494
 O          1.5883721898        0.0449688321       -1.5101943196
 O          1.2156676105        0.3338271710        0.9041440807
 C          3.5938791299        0.9866304826       -0.0836267600
 C          4.1173973403        0.9861816624        1.1950202699
 C          5.4832394003        1.1564927130        1.3601100594
 C          6.2963828798        1.3279730438        0.2500200192
 C          5.7561219394        1.3255411241       -1.0276279306
 C          4.3919927494        1.1530610034       -1.1997907902
 H          3.9271289290        1.1327685036       -2.1716078000
 H          6.3915848590        1.4563357647       -1.8884767108
 H          7.3584299098        1.4617148143        0.3815141089
 H          5.9058734706        1.1545023529        2.3518646293
 H          3.4451750507        0.8424427217        2.0259867100
 H          2.0164504288        3.0570017118       -0.1250189186
 H          0.3841620483        4.5797320207        0.6785046826
 H         -2.0095925817        4.9374667793        1.1565792735
 H         -3.6647774411        3.2724066687        0.5765146935
 H         -2.9961336106        0.6218961800       -1.8534468077
 C         -4.6182809001        0.6936800486       -0.5105418671
 C         -5.3143279900        1.1999237878        0.7134208733
 C         -5.5574448808        1.8581402982       -0.6133165063
 H         -6.5115240809        1.6878768679       -1.0901938561
 H         -5.1491680713        2.8367659185       -0.8040620861
 H         -6.1006042495        0.5863327173        1.1292804834
 H         -4.7179360299        1.6900887179        1.4650234233
 H         -4.9998059298       -0.2461315314       -0.9054277173
