  62
        -98.94801609
 C         -1.2697431515       -1.0447035606       -0.0590574089
 C         -1.6310035713        0.0108395601        0.8114585603
 C         -2.6772122013        0.9148152798        0.3243159997
 C         -3.1794686014        0.7466777088       -0.9123199201
 C         -4.2281378715        1.6059822483       -1.5652059607
 C         -5.6682804114        1.2305921487       -1.1891073103
 C         -6.0898880613        1.6052057899        0.2323362595
 H         -5.8692656212        2.6584581001        0.4089780286
 H         -7.1737871713        1.4855960001        0.2861920797
 C         -5.4437489612        0.7500565708        1.3311635601
 H         -6.2072247011        0.4425348715        2.0491576905
 H         -5.0331678013       -0.1606199696        0.8891489708
 C         -4.3407424610        1.4577218414        2.1182016394
 H         -3.9302169510        0.7512072720        2.8439142899
 H         -4.7653922909        2.2990853919        2.6701978687
 C         -3.1833477711        1.9757656906        1.2541342988
 H         -3.4953030111        2.8561569302        0.6921008381
 H         -2.3590408810        2.2605207511        1.9131282885
 H         -6.3309361515        1.7450105082       -1.8888825606
 H         -5.7980074215        0.1560307186       -1.3370855094
 H         -4.0457695414        2.6533611785       -1.3215257616
 H         -4.1076488216        1.4762279974       -2.6430715506
 O         -2.7610398616       -0.2433213619       -1.7451674294
 C         -1.8040284216       -1.1645856416       -1.3415120687
 O         -1.5210811618       -2.0191992424       -2.2028761780
 H          0.8089785786        0.2216305088       -0.6278497502
 C          1.4236863085       -0.6300225415       -0.8746569895
 C          1.0334535584       -1.8990394011       -0.4709409384
 C          1.8273416683       -2.9804008915       -0.8333302476
 C          2.9708159983       -2.7858226722       -1.5888899979
 C          3.3642750783       -1.5165311025       -1.9729880990
 C          2.5800757684       -0.4278938422       -1.6097521698
 N          2.9382051584        0.8831803675       -1.9603960710
 S          2.6710527287        2.1133035985       -0.8565510920
 O          1.2754980487        2.4741104386       -0.8296971521
 O          3.5826264687        3.1611751881       -1.2662521929
 C          3.1982606588        1.4327970297        0.7064185386
 C          4.5558819688        1.2357580298        0.8768790486
 C          5.0109165789        0.6527433207        2.0472730390
 C          4.1032151790        0.2701123716        3.0237595594
 C          2.7460561890        0.4804375915        2.8408580894
 C          2.2839444489        1.0677086506        1.6727118290
 H          1.2296721589        1.2333448805        1.5136352889
 H          2.0316361590        0.1874877522        3.5938752397
 H          4.4542838991       -0.1920287977        3.9329269698
 H          6.0671909489        0.4942786208        2.1932290090
 H          5.2293181287        1.5563453891        0.0986050982
 H          3.8358138784        0.9729676671       -2.4133131711
 H          4.2609155982       -1.3671158830       -2.5544441492
 H          3.5719602682       -3.6356846924       -1.8739285573
 H          1.5467198483       -3.9758911012       -0.5308633668
 C         -0.2036024815       -2.0274196303        0.3847410718
 H          0.0693522487       -1.7151764695        1.4051318215
 C         -0.7554403716       -3.4368582202        0.4397606230
 C         -0.2546838515       -4.4066756394        1.4670361438
 C         -1.6293020215       -3.8246244992        1.5939341135
 H         -2.4817260215       -4.4595720393        1.4047346441
 H         -1.8025691513       -3.0790014986        2.3563685229
 H         -0.1648819016       -5.4471077296        1.1932931646
 H          0.5042645486       -4.0617096389        2.1527376234
 H         -1.0234557417       -3.8161586910       -0.5397178566
 O         -1.0983445711        0.1904839410        1.9404173901
