  62
        -98.94452903
 C          1.2656069908        1.7773447991       -0.6925366909
 C          2.4525791103        1.6491052314        0.0752153783
 C          3.3827187958        0.5916987143       -0.3285769193
 C          3.1042749585       -0.1599848426       -1.4084342025
 C          3.9311011434       -1.3017411318       -1.9321836049
 C          3.6300005860       -2.6322233465       -1.2278223776
 C          4.1836743324       -2.7508309091        0.1928606302
 H          4.1100736220       -3.8025367031        0.4771134346
 H          5.2414064685       -2.4836073956        0.1958320305
 C          3.4323491634       -1.9088517439        1.2340746836
 H          2.4519591016       -1.6313309898        0.8369625731
 H          3.2466595309       -2.5150389237        2.1244346875
 C          4.1732305030       -0.6510570188        1.6913534324
 H          5.0816859621       -0.9383270035        2.2262108311
 H          3.5268957790       -0.1106779733        2.3881236925
 C          4.5565590459        0.3114809017        0.5594374145
 H          4.8707645820        1.2578228293        1.0067600476
 H          5.3851756478       -0.0965338553       -0.0187866864
 H          4.0626671530       -3.4317613782       -1.8342511780
 H          2.5464562034       -2.7780066945       -1.2033690884
 H          4.9920107796       -1.0675153124       -1.8403590015
 H          3.6859025166       -1.4078884261       -2.9911653975
 O          2.0019961618        0.0469249743       -2.1697015140
 C          1.0175182298        0.9577370117       -1.7940630872
 O          0.0194125587        0.9324025639       -2.5377177192
 O          2.7108990709        2.3841385363        1.0666395522
 C          0.2284131037        2.7383246399       -0.1366773053
 C         -0.4680478106        2.0800689290        1.0321913423
 C         -0.8245891079        2.7928498527        2.1705631257
 C         -1.4346483306        2.1502106431        3.2342378433
 C         -1.6836713555        0.7901463407        3.1933254539
 C         -1.3144016944        0.0640218851        2.0648568441
 C         -0.7346687011        0.7199686777        0.9902966536
 H         -0.4414684991        0.1498312905        0.1249079903
 N         -1.4851923896       -1.3206138440        2.0165210642
 S         -1.4471094589       -2.2375256400        0.6265069485
 O         -1.7782924024       -3.5674789720        1.0930441547
 O         -0.1796594128       -2.1014784767       -0.0452543969
 C         -2.7974228324       -1.6285665661       -0.3659837392
 C         -2.5811771620       -0.8787482392       -1.5029056509
 C         -3.6791211685       -0.4236788760       -2.2190645572
 C         -4.9625608913       -0.7184197833       -1.7897782992
 C         -5.1629705768       -1.4756829472       -0.6446068704
 C         -4.0726144814       -1.9350241016        0.0735068947
 H         -4.1836575676       -2.5425612216        0.9568670873
 H         -6.1620124428       -1.7079732639       -0.3126613619
 H         -5.8097684355       -0.3581441571       -2.3516626530
 H         -3.5121157732        0.1634861834       -3.1077634331
 H         -1.5778590343       -0.6443643315       -1.8241988088
 H         -2.0076738867       -1.7413379283        2.7677795667
 H         -2.1374526199        0.2877659776        4.0334813628
 H         -1.7077440664        2.7130159170        4.1139212583
 H         -0.5975003015        3.8468486578        2.2319683561
 H          0.8005114201        3.5908659100        0.2647999185
 C         -0.7444649174        3.2819256310       -1.1700092412
 C         -2.1514020867        2.7883479920       -1.2973111999
 C         -1.8885603492        4.1594803061       -0.7556777506
 H         -2.1276476821        5.0128466386       -1.3718419245
 H         -2.0463620749        4.3169160162        0.2998452730
 H         -2.5567554675        2.6866800984       -2.2915605811
 H         -2.4822870774        2.0203560380       -0.6145387903
 H         -0.2428413405        3.5426524105       -2.0956625358
