  62
        -98.94419951
 C         -1.9848175488       -1.3091230802        0.0244250708
 C         -2.3118936455       -0.3400394373       -0.9547864493
 C         -3.7205240238        0.0824191625       -0.9928379712
 C         -4.6003968187       -0.4611224247       -0.1329777025
 C         -6.0484567294       -0.0814164893       -0.0296466892
 C         -6.2563652081        1.0424183826        0.9952336539
 C         -5.3053920684        2.2260331925        0.8163927374
 H         -5.5650761579        2.9689079739        1.5737520263
 H         -4.2839365773        1.8993187128        1.0256613216
 C         -5.3539211095        2.8755716093       -0.5736750246
 H         -5.3736750790        3.9606965765       -0.4521638948
 H         -6.2745835222        2.5903274865       -1.0841548253
 C         -4.1566618257        2.5499726611       -1.4687355036
 H         -3.2285432921        2.7471517734       -0.9256208830
 H         -4.1818352759        3.2254768116       -2.3281278019
 C         -4.1017990267        1.1172046374       -2.0138269329
 H         -5.0552115179        0.8649459409       -2.4823227826
 H         -3.3222938806        1.0839775197       -2.7806002794
 H         -7.2888422376        1.3890506937        0.9227321851
 H         -6.1053925682        0.6311469309        1.9959850968
 H         -6.4072240028        0.2335938084       -1.0075449042
 H         -6.6124174633       -0.9597940238        0.2886756182
 O         -4.2522312295       -1.3978153802        0.7852290777
 C         -2.9424786992       -1.8281971023        0.9004632433
 O         -2.7571908594       -2.6692127657        1.8022964049
 H          0.9512499729        0.0810073011       -1.0688523192
 C          0.9835569208        0.1822623556        0.0043312172
 C          0.2686607157       -0.7003815225        0.7996854694
 C          0.3021011824       -0.5291780475        2.1802896071
 C          1.0341246545        0.4974245975        2.7487316753
 C          1.7423936228        1.3800803598        1.9514059875
 C          1.7052675442        1.2227628715        0.5728940291
 N          2.4294377665        2.1181658438       -0.2458073119
 S          4.0957473121        2.0413068449       -0.0912440487
 O          4.4706508973        2.5544347759        1.2017333921
 O          4.6318212977        2.7381426874       -1.2381334144
 C          4.4664522505        0.2997450128       -0.1908074085
 C          4.6571553615       -0.2664203208       -1.4354181921
 C          4.8636421347       -1.6333113650       -1.5255161262
 C          4.8613625706       -2.4084423247       -0.3759420855
 C          4.6644794658       -1.8248699451        0.8659140198
 C          4.4641799697       -0.4572928255        0.9634926052
 H          4.3125935664        0.0338269611        1.9105559821
 H          4.6630100387       -2.4297663174        1.7584212564
 H          5.0139744246       -3.4737668734       -0.4485864083
 H          5.0213537242       -2.0896940426       -2.4897219057
 H          4.6541952263        0.3725518028       -2.3041005859
 H          2.1766036162        2.0423289678       -1.2214265014
 H          2.3273653078        2.1809414774        2.3743186862
 H          1.0524450460        0.6139598150        3.8218582217
 H         -0.2626082104       -1.2091712892        2.8030064759
 C         -0.5609320718       -1.8126476425        0.2065850216
 H         -0.6237566321       -2.6183583559        0.9495511093
 C          0.0248121654       -2.3743553596       -1.0730833516
 C          1.3174982356       -3.1295692337       -1.0068416380
 C          0.0374831050       -3.8564476544       -1.2875970758
 H         -0.1353419403       -4.2327528598       -2.2847613160
 H         -0.3799881140       -4.4783982466       -0.5092887575
 H          1.7707513602       -3.2523202755       -0.0348916299
 H          2.0287487335       -3.0067201921       -1.8089128559
 H         -0.1544467449       -1.7521728144       -1.9403840160
 O         -1.4849626870        0.1519554853       -1.7671521797
