  62
        -98.94601366
 C         -2.0037047121       -0.2703356072        0.5129780921
 C         -1.6607876714        0.8898101258        1.2515975671
 C         -1.7486026066        2.1671795609        0.5360029041
 C         -2.0847374403        2.1770345770       -0.7662509894
 C         -2.2244183274        3.3960876159       -1.6372384974
 C         -0.8945537663        3.8913490348       -2.2218899040
 C          0.0231549961        4.6048630812       -1.2285181395
 H          0.8028422881        5.0992076966       -1.8115033275
 H         -0.5388081861        5.3814933164       -0.7078044944
 C          0.6899475773        3.6726682084       -0.2074107407
 H          0.6397914223        2.6437780334       -0.5745595997
 H          1.7507393401        3.9236196864       -0.1244743825
 C          0.0956626895        3.7480606988        1.1993966944
 H          0.6300301931        3.0396033272        1.8361204401
 H          0.2544823191        4.7492599514        1.6067122474
 C         -1.4017583492        3.4230743669        1.2793228846
 H         -1.9866637264        4.2586336336        0.8945568523
 H         -1.6617096053        3.2681323271        2.3296660601
 H         -0.3646692954        3.0384782644       -2.6546839061
 H         -1.1307750653        4.5853747359       -3.0322398951
 H         -2.8804890839        3.1134000312       -2.4634826761
 H         -2.6996618916        4.2004431788       -1.0743798631
 O         -2.3642849415        1.0413588170       -1.4545562090
 C         -2.3006385389       -0.2072974798       -0.8505633355
 O         -2.5446442920       -1.1493149285       -1.6279463463
 O         -1.2935044811        0.8599922899        2.4574726540
 C         -1.8752694963       -1.6172841847        1.2083618433
 C         -1.0214479261       -2.5126153109        0.3466157352
 C         -1.4200253623       -3.7391951236       -0.1638139349
 C         -0.5900680647       -4.4307950283       -1.0305658110
 C          0.6271718215       -3.9068331376       -1.4244255124
 C          1.0391645123       -2.6823013843       -0.9076948271
 C          0.2336774505       -2.0255313917        0.0038485939
 H          0.5505981373       -1.0767575495        0.4059200087
 N          2.2609423303       -2.1072489991       -1.2825262803
 S          2.4925767949       -0.4482792849       -1.2715206548
 O          1.2760666575        0.2911655858       -1.5124663079
 O          3.5633986922       -0.2393881724       -2.2242483098
 C          3.1252787705       -0.1414416765        0.3650909926
 C          2.3824457339        0.5623546723        1.2901685758
 C          2.9029826166        0.7637451971        2.5590456673
 C          4.1546675183        0.2623352293        2.8792138059
 C          4.8933711048       -0.4382477848        1.9370478347
 C          4.3759331847       -0.6443229009        0.6689805149
 H          4.9191149380       -1.1748273289       -0.0950499485
 H          5.8677104903       -0.8249932279        2.1885344371
 H          4.5549315986        0.4208704482        3.8681198695
 H          2.3197398308        1.3040788554        3.2881335838
 H          1.4093805436        0.9399013272        1.0150093947
 H          2.7270301897       -2.5533523238       -2.0580962572
 H          1.2488893016       -4.4299036043       -2.1350622119
 H         -0.9112473925       -5.3807558155       -1.4307645024
 H         -2.3903585774       -4.1370755195        0.0841637905
 H         -1.3137731278       -1.3926742857        2.1312096206
 C         -3.1881816489       -2.2463518846        1.6441909238
 C         -4.3835624074       -1.3955732020        1.9503872782
 C         -4.3936757396       -2.3000615772        0.7564013306
 H         -5.0140244584       -3.1838748435        0.7911778327
 H         -4.3113913693       -1.8627234157       -0.2258204106
 H         -4.9960637898       -1.6551760101        2.8007451836
 H         -4.2942336532       -0.3318153801        1.7827034608
 H         -3.0284797607       -3.0999555923        2.2959956673
