  62
        -98.93777907
 C         -2.5656084985       -0.0820836349       -0.1336513642
 C         -2.4178095584       -1.2206420560       -0.9610658465
 C         -1.8315801346       -2.4229127501       -0.3456429805
 C         -1.4658371933       -2.3767304740        0.9468725405
 C         -0.7631371557       -3.4424869357        1.7416254387
 C          0.7596276642       -3.2264868913        1.6850617747
 C          1.4618118221       -3.9183408342        0.5179318701
 H          2.5079163595       -3.6033264049        0.5374597869
 H          1.4369183900       -5.0000436357        0.6711409535
 C          0.8861979042       -3.6046350481       -0.8654632396
 H          0.6837784250       -2.5334509861       -0.9434255542
 H          1.6548959141       -3.8328631644       -1.6071765185
 C         -0.3754237840       -4.4176708043       -1.1933975759
 H         -0.4742611171       -5.2267823400       -0.4695736042
 H         -0.2552391572       -4.8885084947       -2.1714812545
 C         -1.6826016409       -3.6148820361       -1.2517661717
 H         -2.5246809626       -4.2932684700       -1.0749713958
 H         -1.8132966459       -3.2105371927       -2.2606902906
 H          1.2018734319       -3.5937578248        2.6138206308
 H          0.9450293761       -2.1498867603        1.6327263550
 H         -1.0941131150       -3.3289513975        2.7760462354
 H         -1.0363858212       -4.4335934048        1.3910016900
 O         -1.6491441497       -1.2718385675        1.7177559152
 C         -2.1409525742       -0.0886449619        1.1970931143
 O         -2.1688285207        0.8493089070        2.0161768637
 O         -2.7445962839       -1.2250084300       -2.1810431504
 C         -2.9961055050        1.2189331222       -0.7931433467
 C         -1.9460503318        2.2578323307       -0.4846834013
 C         -2.2014375708        3.5066345719        0.0631196533
 C         -1.1523084975        4.3521853835        0.3848480826
 C          0.1610390504        3.9635785925        0.1968288633
 C          0.4249852593        2.7183635464       -0.3639835182
 C         -0.6264413796        1.8996258354       -0.7322556047
 H         -0.4118895877        0.9352077725       -1.1710583356
 N          1.7417416370        2.2646978982       -0.5698592907
 S          2.0117103254        0.6078587445       -0.3449005641
 O          1.6943775336       -0.0783754374       -1.5726025898
 O          1.3431537123        0.1428571820        0.8480386298
 C          3.7781444009        0.5996223927       -0.1012565308
 C          4.2813484995        0.6117464196        1.1858163327
 C          5.6551002443        0.6381204513        1.3687106588
 C          6.4973399254        0.6552331810        0.2670588642
 C          5.9774936220        0.6412436438       -1.0188317555
 C          4.6049351562        0.6133744247       -1.2085062519
 H          4.1534349767        0.5916150046       -2.1866029985
 H          6.6353510558        0.6510176656       -1.8727460187
 H          7.5658331343        0.6764501816        0.4120677207
 H          6.0611999519        0.6448993855        2.3673402869
 H          3.5869158321        0.5885712240        2.0107735798
 H          2.4259338773        2.8192106632       -0.0727951510
 H          0.9752438781        4.6101904700        0.4871793683
 H         -1.3618286595        5.3188396717        0.8175187503
 H         -3.2161156311        3.8061683782        0.2685778599
 H         -2.9471868155        0.9992386790       -1.8739203575
 C         -4.4203004048        1.6670011127       -0.5109039062
 C         -5.4701875510        0.6795910964       -0.0991608202
 C         -4.9962452657        1.7173866952        0.8712810113
 H         -5.6650004909        2.5302696828        1.1145336518
 H         -4.3607641120        1.4111050849        1.6864704543
 H         -6.4601313703        0.7760469061       -0.5192561903
 H         -5.1566013745       -0.3430082960        0.0552628657
 H         -4.7402817703        2.4454590419       -1.1972205088
