  62
        -98.94436375
 C          1.6169147609        1.3781348210        0.5381851104
 C          1.6080821716        0.0703610930        1.0877845603
 C          2.7372216842       -0.7902187705        0.7210120035
 C          3.7061868517       -0.3123511827       -0.0807714348
 C          4.9420218232       -1.0528657583       -0.5152568190
 C          4.7338493957       -1.9518292844       -1.7416077222
 C          3.9186863874       -3.2197621392       -1.4853849415
 H          4.0307311819       -3.8556841024       -2.3657529149
 H          4.3445379576       -3.7584425143       -0.6383777584
 C          2.4235125532       -2.9705892616       -1.2417352204
 H          2.1586265794       -1.9694460529       -1.5903287030
 H          1.8361572016       -3.6780069296       -1.8309312190
 C          1.9832735771       -3.1205288179        0.2143704070
 H          0.9190671251       -2.8809111613        0.2740544793
 H          2.1172218400       -4.1569237637        0.5308967866
 C          2.7265415789       -2.2100194563        1.2004061570
 H          3.7442413472       -2.5682192249        1.3539416703
 H          2.1964872530       -2.2341752136        2.1553300500
 H          4.2559134590       -1.3634963822       -2.5284302333
 H          5.7225349133       -2.2462065315       -2.1013601233
 H          5.3219834430       -1.6493409977        0.3145857386
 H          5.6858060949       -0.2939471676       -0.7676082507
 O          3.6786510628        0.9477094035       -0.5879565181
 C          2.6201058219        1.8091262559       -0.3300135892
 O          2.7109999181        2.9036057240       -0.9178189884
 O          0.7029200151       -0.3536218145        1.8539135559
 C          0.4385158752        2.2827051326        0.8615636529
 C         -0.4903810701        2.2772460213       -0.3277992395
 C         -0.4855992309        3.2691596149       -1.3005738730
 C         -1.3306358036        3.1764187376       -2.3924451555
 C         -2.2057034760        2.1132034091       -2.5236555505
 C         -2.2168234972        1.1146337864       -1.5558496977
 C         -1.3530869521        1.1976674613       -0.4756475933
 H         -1.3492785504        0.4130982367        0.2665775743
 N         -3.0860321132        0.0175968191       -1.6565585708
 S         -3.8895063951       -0.5201795666       -0.2858253213
 O         -5.0877609176       -1.1516909170       -0.7996928666
 O         -4.0951378592        0.5534205150        0.6581345950
 C         -2.8429983788       -1.7804017598        0.4066290965
 C         -2.5211477585       -2.8645503332       -0.3864725721
 C         -1.7487181356       -3.8796947289        0.1521223806
 C         -1.3139821711       -3.7940710764        1.4670982616
 C         -1.6442245103       -2.6988713742        2.2487585141
 C         -2.4188929036       -1.6812525004        1.7157202774
 H         -2.6931591329       -0.8106750397        2.2903307068
 H         -1.2951635106       -2.6249866748        3.2657763690
 H         -0.7099666746       -4.5844069290        1.8844000016
 H         -1.4839391977       -4.7325120729       -0.4522691430
 H         -2.8835509587       -2.8962516511       -1.4005981755
 H         -3.7022488656        0.0409360338       -2.4563309483
 H         -2.8742287245        2.0521553242       -3.3693281618
 H         -1.3154308204        3.9492216419       -3.1463292448
 H          0.1946436921        4.1001246361       -1.2113395395
 H         -0.0861228948        1.7875416514        1.6907018999
 C          0.8499308334        3.6676118342        1.3106822393
 C         -0.1696960071        4.5468920067        1.9690208018
 C          0.9487732489        3.9617003215        2.7763201524
 H          1.7363122109        4.6168888840        3.1173375141
 H          0.7170538485        3.1625276088        3.4652392718
 H         -0.1533275580        5.6050921928        1.7576852864
 H         -1.1615672674        4.1414703050        2.1049727043
 H          1.5808601869        4.1350338765        0.6634384173
