  62
        -98.93505630
 C          2.0370369662       -0.6906064265        0.4133381804
 C          3.1732828350       -1.2251534363       -0.2426227424
 C          4.4463030189       -0.4918724383       -0.1034320041
 C          4.4567336102        0.6505537622        0.6074242674
 C          5.6097101531        1.5875440001        0.8509756248
 C          5.9351590892        2.4569495504       -0.3743585196
 C          5.9439795607        1.7128796644       -1.7071748331
 H          6.0766930076        2.4541962106       -2.4996597948
 H          4.9701022236        1.2449756292       -1.8626134750
 C          7.0429020634        0.6639537736       -1.8601691575
 H          8.0162442000        1.1451917480       -1.7410675037
 H          6.9852061510        0.2809341668       -2.8822751819
 C          6.9691887252       -0.5271705627       -0.9025391334
 H          7.3303675585       -0.2584074100        0.0865682789
 H          7.6508304258       -1.2932751623       -1.2836669362
 C          5.5941416616       -1.1799037157       -0.8023773782
 H          5.7051828795       -2.1499023485       -0.3023664064
 H          5.2351943306       -1.4167118532       -1.8104276435
 H          6.9045735592        2.9314777640       -0.2128160875
 H          5.1804235143        3.2447104777       -0.4387070776
 H          6.4835059149        1.0289182603        1.1733528345
 H          5.3123720390        2.2433569617        1.6723873363
 O          3.3322786639        1.1468630361        1.1954733060
 C          2.1036929149        0.5099914170        1.1213390350
 O          1.1914386372        1.1099722499        1.7192296669
 O          3.1315327697       -2.2803363306       -0.9308646603
 C          0.7259019156       -1.4417866376        0.2591319756
 C         -0.3625576498       -0.4916969758       -0.1682518579
 C         -0.3655618530       -0.0124410993       -1.4750377810
 C         -1.3267798732        0.8863005816       -1.8973985590
 C         -2.3067831176        1.3258932556       -1.0252213047
 C         -2.3137114112        0.8516412786        0.2797596221
 C         -1.3544682590       -0.0614243203        0.6985017086
 H         -1.3575228092       -0.4038269660        1.7213799619
 N         -3.3060624473        1.2935025994        1.1681761287
 S         -4.8833039091        1.3780459750        0.6272632063
 O         -5.0811791715        2.5899302426       -0.1286910908
 O         -5.6999228798        1.2342481421        1.8122251898
 C         -5.0792513443       -0.0375844557       -0.4420105484
 C         -4.8856354163       -1.2927006494        0.1006475004
 C         -4.9963702112       -2.4025958714       -0.7205183525
 C         -5.2968508087       -2.2397038446       -2.0644541981
 C         -5.4939522713       -0.9737702712       -2.5929408044
 C         -5.3826157372        0.1403113413       -1.7761252778
 H         -5.5251217049        1.1424119879       -2.1465492372
 H         -5.7300277033       -0.8502996437       -3.6375975316
 H         -5.3786170790       -3.1056649453       -2.7022463567
 H         -4.8450372139       -3.3887559599       -0.3117611699
 H         -4.6597606872       -1.3849842726        1.1508090596
 H         -3.2383987855        0.9041725352        2.0960621746
 H         -3.0520454295        2.0429446706       -1.3292132363
 H         -1.3118867471        1.2532286493       -2.9124402370
 H          0.4064093427       -0.3464447300       -2.1547052801
 H          0.9138029291       -2.1401283902       -0.5726497100
 C          0.3396792609       -2.2961589129        1.4571064114
 C          1.3901711658       -2.9904195365        2.2698458283
 C          0.5871355804       -1.8801280580        2.8751224220
 H         -0.1549567864       -2.1343777406        3.6185672128
 H          1.0661489420       -0.9292183888        3.0475942615
 H          1.2042972760       -4.0015558110        2.5992310157
 H          2.4226666876       -2.7946245042        2.0194559784
 H         -0.5717113387       -2.8562819215        1.2698891414
