  62
        -98.94495981
 C         -1.8975368128       -0.7047271350       -0.1890053696
 C         -2.4602710703       -0.0789789346        0.9487451168
 C         -3.5535456596        0.8632534904        0.6864220207
 C         -3.9208259228        1.1216830587       -0.5820548056
 C         -5.0006833993        2.0767900001       -1.0130563564
 C         -6.4128412087        1.4759253968       -0.9843264169
 C         -7.0024940718        1.2650841871        0.4108632280
 H         -6.9278516260        2.1926339519        0.9794613395
 H         -8.0645270204        1.0483612320        0.2798677856
 C         -6.3593843947        0.1188497329        1.2039661318
 H         -7.1416482043       -0.4914736614        1.6607753581
 H         -5.8049354357       -0.5297297877        0.5218544572
 C         -5.4247071727        0.5706074466        2.3260799706
 H         -4.9985352040       -0.3194434270        2.7959144326
 H         -5.9961225463        1.1105125115        3.0843970368
 C         -4.2656947202        1.4623410243        1.8616313470
 H         -4.6322805423        2.4593458705        1.6177632737
 H         -3.5464573361        1.5446023986        2.6804018017
 H         -7.0673619047        2.1573298474       -1.5327344940
 H         -6.3985182814        0.5249374915       -1.5217781407
 H         -4.9713925067        2.9706172524       -0.3890511733
 H         -4.7690168035        2.3633210959       -2.0412429832
 O         -3.3166078024        0.5411500024       -1.6524139309
 C         -2.3049966709       -0.3954172849       -1.4870502349
 O         -1.8601031869       -0.8610646347       -2.5522595892
 H          0.3570351043        0.6271296819        0.4536683820
 C          0.9307879267        0.0560175422       -0.2657875204
 C          0.4859660866       -1.2099725889       -0.6298856219
 C          1.2382646705       -1.9390908752       -1.5401585508
 C          2.3854348479       -1.3963972341       -2.0948678840
 C          2.8130524395       -0.1292381264       -1.7464464909
 C          2.0792085872        0.6002574895       -0.8182950418
 N          2.5179584447        1.8794729022       -0.4382153255
 S          4.1480386120        2.0872521922       -0.1221000204
 O          4.2132647618        3.1744803823        0.8294786700
 O          4.8601993378        2.2929392270       -1.3588276424
 C          4.6812946483        0.5600296695        0.6318015318
 C          5.6733548457       -0.1919029534        0.0362782613
 C          6.0511974387       -1.3889555830        0.6233072783
 C          5.4302872325       -1.8130131158        1.7876414624
 C          4.4376981356       -1.0442393546        2.3763327483
 C          4.0577466928        0.1544769610        1.7952582416
 H          3.2917067215        0.7755557656        2.2317239931
 H          3.9552271852       -1.3748178258        3.2822232047
 H          5.7205791016       -2.7475837599        2.2409907181
 H          6.8241950699       -1.9874168727        0.1689585912
 H          6.1264053807        0.1735722359       -0.8708422009
 H          1.9447343658        2.3200710521        0.2656643417
 H          3.6935788638        0.3125180216       -2.1839511481
 H          2.9527954859       -1.9684054999       -2.8128236247
 H          0.9209621258       -2.9276017911       -1.8272217529
 C         -0.7835987730       -1.7176813437        0.0079630746
 H         -0.6219432248       -1.7607147103        1.0953363277
 C         -1.2100557038       -3.0872542134       -0.4745000672
 C         -0.5925840501       -4.3174504928        0.1182586012
 C         -2.0108409243       -3.9598694914        0.4434614154
 H         -2.8057233000       -4.5577264955        0.0233216233
 H         -2.2303028515       -3.5750635666        1.4288511205
 H         -0.4141063047       -5.1660016385       -0.5245471498
 H          0.1528626062       -4.1807423795        0.8866979499
 H         -1.4707957320       -3.0976473461       -1.5266199839
 O         -2.0610775729       -0.2908995542        2.1260532705
