  62
        -98.94309425
 C         -2.5663945185       -0.1754433652        0.5283172462
 C         -2.2013308233        0.3599222105       -0.7325367982
 C         -1.9849821280        1.8147380604       -0.7747154765
 C         -2.0947509879        2.5344996692        0.3552427650
 C         -1.8677018690        4.0144695361        0.4627386013
 C         -0.4122275853        4.3374953267        0.8246886473
 C          0.6197428780        3.6313533061       -0.0552225701
 H          1.6060306917        3.9848347974        0.2556186179
 H          0.5953332331        2.5563842302        0.1424621472
 C          0.4421123440        3.8679910909       -1.5615173581
 H          1.4222006654        4.0689605914       -1.9988511016
 H         -0.1774971168        4.7503165156       -1.7299009611
 C         -0.1461167895        2.6748625666       -2.3175425342
 H          0.3944220647        1.7682797011       -2.0351735329
 H          0.0089594944        2.8371643750       -3.3879119222
 C         -1.6445979747        2.4241451530       -2.1054091555
 H         -2.2012465489        3.3521246874       -2.2574385994
 H         -1.9691801912        1.6993792815       -2.8579431202
 H         -0.2733562101        5.4183518632        0.7538399971
 H         -0.2374774976        4.0380025790        1.8609897766
 H         -2.1305431312        4.4844954249       -0.4831054407
 H         -2.5209363076        4.4033802436        1.2462356295
 O         -2.4043048256        1.9806985009        1.5569933821
 C         -2.6245527960        0.6188537719        1.6747464206
 O         -2.8673753479        0.2407210967        2.8402919035
 O         -2.0789381158       -0.3271364662       -1.7793322490
 C         -2.7744772108       -1.6679646664        0.7319254123
 C         -1.6314065728       -2.4148278727        0.0888024251
 C         -1.7839987460       -3.4490951693       -0.8242256586
 C         -0.6714632663       -4.0539213381       -1.3842510185
 C          0.6053034792       -3.6328662805       -1.0626041451
 C          0.7675715126       -2.6035559778       -0.1416991778
 C         -0.3454118041       -2.0239553096        0.4410311183
 H         -0.2101399089       -1.2224075992        1.1548252471
 N          2.0472405075       -2.1433595285        0.2233090529
 S          2.2088256362       -0.4742366588        0.4507100826
 O          1.8311889723       -0.1512396797        1.8055848026
 O          1.5224092944        0.2409718331       -0.5981455081
 C          3.9736614441       -0.2939682875        0.2689013818
 C          4.7881510575       -0.6829585460        1.3157235844
 C          6.1622122232       -0.5793983224        1.1692000122
 C          6.6958303004       -0.0914584342       -0.0147078683
 C          5.8657098787        0.2979072384       -1.0549417535
 C          4.4901911039        0.1953511178       -0.9155573746
 H          3.8044439976        0.4907752297       -1.6935210830
 H          6.2827723201        0.6805577854       -1.9724373335
 H          7.7655814993       -0.0114968933       -0.1259873360
 H          6.8105225367       -0.8782391028        1.9769426726
 H          4.3264274417       -1.0466751007        2.2188717884
 H          2.7726845348       -2.4978050500       -0.3860942839
 H          1.4693396233       -4.0891408643       -1.5216631489
 H         -0.8025819065       -4.8521743966       -2.0991734409
 H         -2.7714990965       -3.7631648325       -1.1199413838
 H         -2.6921814608       -1.8140405478        1.8227719125
 C         -4.1484037378       -2.1829536476        0.3308167221
 C         -5.3366069922       -1.2695232473        0.3001688824
 C         -4.7900626665       -1.8308523447       -0.9762661400
 H         -5.3634819140       -2.5920914838       -1.4850082407
 H         -4.2443910369       -1.1767272398       -1.6369377698
 H         -6.2799265759       -1.6440043112        0.6685922265
 H         -5.1673356806       -0.2238697624        0.5143408829
 H         -4.3278219782       -3.1856954989        0.7068740453
