  62
        -98.93832368
 C          1.9019532682       -0.9378957809       -0.0810669840
 C          2.3862910148        0.3866000827        0.0023137398
 C          3.8162188358        0.5915180152       -0.3103688542
 C          4.5636082143       -0.4720289985       -0.6598734489
 C          6.0352162408       -0.5142524782       -0.9753621208
 C          6.9126668646       -0.4266635488        0.2838190733
 C          6.4750669003        0.6242746767        1.3006607648
 H          5.4475108785        0.4207173760        1.6075364636
 H          7.1056438786        0.5119334093        2.1866475074
 C          6.5863530170        2.0722627349        0.8293318944
 H          7.6235262404        2.2824271867        0.5586736360
 H          6.3294216468        2.7103248030        1.6788694664
 C          5.6883638448        2.4642421030       -0.3460185548
 H          6.0940691437        2.1036537785       -1.2874050202
 H          5.6897900980        3.5565991593       -0.4062242170
 C          4.2300368441        2.0394694788       -0.2035040188
 H          3.8461069372        2.3920101417        0.7607732839
 H          3.6363041518        2.5700930100       -0.9580346286
 H          7.9409613690       -0.2316909811       -0.0250655708
 H          6.8878953291       -1.3996208074        0.7805824667
 H          6.2889393516        0.2716844561       -1.6803890869
 H          6.2236738005       -1.4729372290       -1.4635570910
 O          4.0470965489       -1.7325095567       -0.7353436975
 C          2.7226997262       -2.0008025378       -0.4550559513
 O          2.3976403163       -3.1994127096       -0.5774646219
 O          1.6665523264        1.3671236530        0.3289446583
 C          0.4484678354       -1.2418741704        0.2381773890
 C         -0.4492179825       -0.4237065995       -0.6570540777
 C         -0.2801426011       -0.5272250577       -2.0363246077
 C         -1.0537290472        0.2204896487       -2.9013532030
 C         -2.0213302139        1.0803201710       -2.4104930449
 C         -2.2025724320        1.1877674426       -1.0375026003
 C         -1.4243339514        0.4310093299       -0.1699308053
 H         -1.5743444367        0.5513696879        0.8891032538
 N         -3.1609701081        2.0709750292       -0.5168894390
 S         -4.1576382397        1.6241567777        0.7461620316
 O         -5.2030406800        2.6234534211        0.7492642214
 O         -3.4025877038        1.4873830394        1.9645948841
 C         -4.8292995789        0.0493225350        0.2473768771
 C         -5.8894814593        0.0430882164       -0.6384917439
 C         -6.3862268633       -1.1714104279       -1.0820281687
 C         -5.8114588045       -2.3539125041       -0.6407662172
 C         -4.7481147940       -2.3304345725        0.2481370750
 C         -4.2489077808       -1.1183021141        0.6987631630
 H         -3.4271783270       -1.0614127208        1.3930805711
 H         -4.3037483515       -3.2507973888        0.5923407187
 H         -6.1957534092       -3.2997524116       -0.9887510417
 H         -7.2165731243       -1.1933942269       -1.7693215917
 H         -6.3146717899        0.9842789304       -0.9473565012
 H         -3.6751853708        2.5879489628       -1.2148061780
 H         -2.6201865847        1.6741635764       -3.0841705205
 H         -0.9044995105        0.1348439344       -3.9671728680
 H          0.4802113888       -1.1956586224       -2.4177190700
 H          0.3031224051       -2.3040414501       -0.0071061467
 C          0.1881569149       -1.0447021808        1.7164278336
 C         -0.8675326593       -1.8507168187        2.4092589530
 C          0.5815114028       -2.1284763363        2.6729575423
 H          0.9980924386       -1.8466667753        3.6283753611
 H          1.0155662855       -3.0250228869        2.2542267068
 H         -1.4510204385       -1.3770679337        3.1852734970
 H         -1.4126156502       -2.5702702109        1.8168214917
 H          0.3424498244       -0.0208091573        2.0381140174
