  62
        -98.92799706
 C          2.3204047404        1.0174162511        0.8119416709
 C          2.7865205906        0.5660695815       -0.4476594392
 C          3.7106910909       -0.5835948283       -0.4199122893
 C          4.0193229309       -1.1564905085        0.7564768007
 C          4.8915436712       -2.3657426683        0.9411024805
 C          4.1138805115       -3.6441677884        0.5692628402
 C          4.6617691818       -4.3801303081       -0.6534735599
 H          5.5734617119       -4.9101288579       -0.3699336099
 H          3.9218395120       -5.1290255782       -0.9436048701
 C          4.9870672917       -3.5042739878       -1.8671764397
 H          5.9520330716       -3.0167727876       -1.7203902295
 H          5.1044982619       -4.1746733976       -2.7212136598
 C          3.9456103215       -2.4344659680       -2.2206308996
 H          3.8638649016       -2.3864641578       -3.3084496996
 H          2.9619121215       -2.7128558482       -1.8419875097
 C          4.2947083211       -1.0146485780       -1.7372063493
 H          3.9040007310       -0.2953217679       -2.4633530892
 H          5.3817292811       -0.8960550777       -1.7092767892
 H          4.1215052716       -4.3334922886        1.4149066301
 H          3.0708344714       -3.3721053986        0.3945949102
 H          5.1884867011       -2.3934080784        1.9897771605
 H          5.7853155412       -2.2695268180        0.3285301806
 O          3.4957218807       -0.7368008488        1.9383825407
 C          2.6398331505        0.3497318710        1.9967597808
 O          2.2284327803        0.6133355007        3.1448649708
 O          2.4676590406        1.0891525816       -1.5454402191
 C          1.3985745301        2.2178274309        0.9479035210
 C          0.2620441702        2.1254442808       -0.0402750191
 C          0.1113485602        2.9886188710       -1.1165973390
 C         -0.9588119397        2.8451410709       -1.9822698391
 C         -1.8992611895        1.8498508906       -1.7922383794
 C         -1.7614368594        0.9837281805       -0.7150972995
 C         -0.6887101696        1.1301933806        0.1519319306
 H         -0.5764340795        0.4547993204        0.9921761505
 N         -2.7123724092       -0.0385109198       -0.5173810998
 S         -4.3355155193        0.4283974399       -0.6207628099
 O         -4.7139709092        0.4578735001       -2.0110862799
 O         -4.5445725497        1.6547760497        0.1163414304
 C         -5.1497330291       -0.9310603904        0.1943336798
 C         -5.4657951192       -0.8213562608        1.5352416498
 C         -6.0884076391       -1.8866958910        2.1664242196
 C         -6.3798368787       -3.0381481710        1.4505589193
 C         -6.0557809586       -3.1334472006        0.1052939393
 C         -5.4344216788       -2.0715090204       -0.5323493404
 H         -5.1741501087       -2.0960004301       -1.5776129004
 H         -6.2868213583       -4.0293903806       -0.4479536908
 H         -6.8658046286       -3.8649568212        1.9440425191
 H         -6.3444319792       -1.8140358413        3.2112024495
 H         -5.2306691395        0.0966689392        2.0499296500
 H         -2.5444131792       -0.5457080499        0.3412777101
 H         -2.7402230294        1.7347020506       -2.4570218795
 H         -1.0615244898        3.5176280410       -2.8207799190
 H          0.8454048100        3.7578089512       -1.2912728788
 H          0.9671089801        2.1269711906        1.9585314410
 C          2.1144923398        3.5600608311        0.9093061813
 C          3.4911195597        3.7096533913        1.4833531715
 C          3.2765766499        3.8397780915        0.0067685715
 H          3.3525417397        4.8225163216       -0.4355347683
 H          3.6167008501        3.0450386817       -0.6374581086
 H          3.7164736895        4.5981629712        2.0536862217
 H          3.9755940299        2.8178778213        1.8543897514
 H          1.4282285396        4.3827995809        1.0869399314
