  62
        -98.93751248
 C         -2.3455501001       -0.6140472643        0.0550752281
 C         -3.4140801690       -0.4555594843        0.9675207572
 C         -4.4109346406        0.5808434714        0.6468525189
 C         -4.2589671447        1.3181220615       -0.4693486055
 C         -5.0786785880        2.4620898423       -1.0295302681
 C         -6.4662045246        2.7746366664       -0.4757336522
 C         -7.5271540339        1.7158993020       -0.7760618600
 H         -8.4405532422        1.9848659218       -0.2411284767
 H         -7.7488310091        1.7414847266       -1.8459797954
 C         -7.1469100345        0.2808393419       -0.4203694610
 H         -6.2835587974       -0.0279128628       -1.0132883451
 H         -7.9807767130       -0.3665093231       -0.7053971616
 C         -6.8493172005        0.0303903908        1.0564353058
 H         -6.7422531362       -1.0492423924        1.1923910143
 H         -7.6944250166        0.3610386576        1.6634041050
 C         -5.5702853765        0.6934754279        1.5949035489
 H         -5.7472892641        1.7315471966        1.8654687789
 H         -5.2735031577        0.1637962582        2.5049426617
 H         -6.4103702096        2.9688220719        0.5912690173
 H         -6.7876522784        3.7060571398       -0.9497261102
 H         -4.4525612145        3.3543410117       -0.9192509482
 H         -5.1567529239        2.2737903322       -2.1050874317
 O         -3.1999425444        1.1375471010       -1.3125012110
 C         -2.2264910862        0.1793339754       -1.0840242694
 O         -1.3367558463        0.1375390887       -1.9544559302
 O         -3.5287487037       -1.1460857810        2.0157811403
 C         -1.2893009258       -1.6671530960        0.3412769431
 C          0.0366934910       -0.9846354704        0.5678274336
 C          0.1806724796       -0.1667748411        1.6863473020
 C          1.3671492615        0.4970893255        1.9288529585
 C          2.4361359308        0.3661925166        1.0585859402
 C          2.3047217016       -0.4477263962       -0.0571583090
 C          1.1129317739       -1.1233553342       -0.2927587436
 H          1.0261205630       -1.7475111406       -1.1682632784
 N          3.3784899290       -0.5712502577       -0.9531649580
 S          4.9102200144       -0.8859187927       -0.3513117363
 O          5.6225330454       -1.5165400442       -1.4412800669
 O          4.8507223517       -1.6254289224        0.8882479373
 C          5.6040584629        0.7288849514       -0.0660686368
 C          5.6022184382        1.6330119042       -1.1101056339
 C          6.1535426216        2.8882254974       -0.9088893406
 C          6.6974914122        3.2152901516        0.3244340496
 C          6.6940005592        2.2955165208        1.3617540758
 C          6.1427382123        1.0384903115        1.1673454237
 H          6.1128694843        0.2934531729        1.9464461090
 H          7.1172136774        2.5517666285        2.3197530934
 H          7.1263424125        4.1930328064        0.4776695881
 H          6.1569748475        3.6064491287       -1.7129918562
 H          5.1720077723        1.3402790336       -2.0534474931
 H          3.1754545388       -1.1388385162       -1.7627316467
 H          3.3637195663        0.8848702823        1.2381291097
 H          1.4624018625        1.1262792052        2.8008246771
 H         -0.6569735859       -0.0591573422        2.3619259407
 H         -1.5949766005       -2.1358676146        1.2875113996
 C         -1.2668994009       -2.7256097922       -0.7404153653
 C         -0.6475538413       -4.0615174742       -0.4607224674
 C         -2.1351361346       -3.9374303277       -0.5927108580
 H         -2.6106400647       -4.3410934628       -1.4740569534
 H         -2.7368516637       -4.0131196100        0.3010576560
 H         -0.1012584656       -4.5545354803       -1.2508397816
 H         -0.2357525089       -4.2233885115        0.5240943857
 H         -1.1600379954       -2.3109253745       -1.7363525763
