  62
        -98.94521206
 C         -2.0787397708       -1.4597465587       -0.0089751472
 C         -1.8930826882       -0.4682403477       -1.0026552492
 C         -2.7849123983        0.6986893779       -0.9187356466
 C         -3.6895901524        0.7743989983        0.0735917471
 C         -4.6106451946        1.9348490453        0.3112260250
 C         -3.9740657568        2.9668418997        1.2528821862
 C         -2.5527141325        3.3712809550        0.8605067135
 H         -2.2258925006        4.1287436861        1.5760024899
 H         -1.8904966190        2.5100838234        0.9756393564
 C         -2.4218226110        3.9217355672       -0.5663504519
 H         -1.7980058585        4.8174169927       -0.5432301111
 H         -3.4018646367        4.2223867631       -0.9386155108
 C         -1.7771096232        2.9539788285       -1.5601000905
 H         -1.5345752697        3.5112019643       -2.4687660768
 H         -0.8405586065        2.5724498710       -1.1464568322
 C         -2.6384250362        1.7559128134       -1.9771091911
 H         -3.6186511293        2.1024265228       -2.3110568195
 H         -2.1414459905        1.2682742729       -2.8208215264
 H         -4.6133898991        3.8513537155        1.2753704812
 H         -3.9445045275        2.5438819834        2.2596871796
 H         -5.5278218009        1.5576718201        0.7668022341
 H         -4.8556935199        2.3992648677       -0.6420273184
 O         -3.8347569591       -0.1931378078        1.0141621414
 C         -3.0399359695       -1.3244635340        0.9981015513
 O         -3.2821596487       -2.1317937700        1.9174146086
 O         -1.0386512852       -0.5364783230       -1.9259039055
 C         -1.2412236315       -2.7294696174        0.0412067957
 C          0.1443563054       -2.3974940350        0.5409676820
 C          0.4445922952       -2.5389466215        1.8919800475
 C          1.7000558014       -2.2137274004        2.3729411749
 C          2.6791607657       -1.7345302006        1.5202963381
 C          2.3814040588       -1.5659688129        0.1738996990
 C          1.1242572064       -1.9063245065       -0.3090791114
 H          0.8963857010       -1.7577904656       -1.3528565494
 N          3.3589418942       -1.0780392808       -0.7118263944
 S          4.2540013199        0.2804783922       -0.3328282877
 O          4.9527823349        0.6198316004       -1.5507608058
 O          5.0765647185        0.0009273655        0.8176217256
 C          3.0776398812        1.5608670208        0.0635053236
 C          2.5786797432        1.6541237745        1.3474229291
 C          1.6478217135        2.6404570924        1.6329179320
 C          1.2408543707        3.5166067456        0.6391194498
 C          1.7533060204        3.4112888198       -0.6450749283
 C          2.6745718701        2.4197796725       -0.9396811328
 H          3.1009166869        2.3062038232       -1.9233883209
 H          1.4359641548        4.0953167430       -1.4157499082
 H          0.5194326362        4.2852553361        0.8663548546
 H          1.2450798697        2.7227030038        2.6298545367
 H          2.9286768898        0.9675312111        2.1002308150
 H          3.0352025859       -1.0219820720       -1.6668184353
 H          3.6649257470       -1.4853945021        1.8786361770
 H          1.9219964457       -2.3390405082        3.4220907106
 H         -0.3216440637       -2.9001185094        2.5634336043
 H         -1.7216380258       -3.3694853135        0.7928875267
 C         -1.2310766587       -3.4703070182       -1.2807823372
 C         -0.7871085378       -4.9008410690       -1.3069924616
 C         -2.2316780652       -4.5600331352       -1.5145141377
 H         -2.6520639843       -4.6699293945       -2.5030164364
 H         -2.9281521320       -4.7798000327       -0.7182824514
 H         -0.2132495350       -5.2483314559       -2.1524082024
 H         -0.5028302646       -5.3515193075       -0.3679743156
 H         -0.9776997075       -2.8474213654       -2.1283252257
