  62
        -98.94504498
 C         -1.1574754919       -1.8396244603       -0.6820063216
 C         -0.4801998021       -2.3636652871        0.4488330347
 C          0.9488667227       -2.6733102313        0.2505430887
 C          1.5219534903       -2.4553212021       -0.9453569589
 C          2.9704741383       -2.6808218134       -1.2661152290
 C          3.8092633557       -1.4193110191       -1.0214947373
 C          3.6029750422       -0.7887626494        0.3557966136
 H          4.2945714577        0.0534701239        0.4358971861
 H          2.5952827335       -0.3736785618        0.4238893828
 C          3.8195517806       -1.7434078160        1.5375807170
 H          4.3977809973       -2.6121853013        1.2187590725
 H          4.4031097727       -1.2250736574        2.3013796923
 C          2.5245313488       -2.2064053142        2.2087379388
 H          1.8939483783       -1.3372549203        2.4148348563
 H          2.7814111075       -2.6601051553        3.1703482752
 C          1.6978567988       -3.2350555519        1.4257162263
 H          2.3407548542       -4.0612923852        1.1119802947
 H          0.9356344290       -3.6308000762        2.1038068664
 H          4.8619235640       -1.6802547210       -1.1461698796
 H          3.5500963307       -0.6745747427       -1.7775570556
 H          3.3464732176       -3.5018259982       -0.6585984602
 H          3.0468025931       -2.9561101955       -2.3196029595
 O          0.8366012672       -1.9695996934       -2.0123169237
 C         -0.5031456695       -1.6363951096       -1.9004577060
 O         -1.0019682383       -1.1783023096       -2.9479182227
 H         -1.2377169601        0.0943842420        1.1388133659
 C         -1.8586940105        0.7071299663        0.5027051643
 C         -2.6559106494        0.1133609484       -0.4662160141
 C         -3.4609168375        0.9239667879       -1.2575049261
 C         -3.4613251210        2.2967356119       -1.0846584355
 C         -2.6378219381        2.8871007674       -0.1430750806
 C         -1.8244894838        2.0862274354        0.6509821824
 N         -0.9595277151        2.6567631595        1.6022565142
 S          0.6483868119        2.1897336969        1.6332964413
 O          0.7607678608        0.8201575194        2.0567908371
 O          1.2914736507        3.1770380908        2.4722181192
 C          1.2151635612        2.3735748636       -0.0470242927
 C          1.8405051402        3.5472112133       -0.4202527514
 C          2.2405361086        3.7038948383       -1.7374483085
 C          1.9988283373        2.6954781362       -2.6587948365
 C          1.3653490865        1.5250717410       -2.2705431944
 C          0.9725506388        1.3604263926       -0.9520744831
 H          0.4802805992        0.4578899689       -0.6252105380
 H          1.1600029753        0.7365231544       -2.9786576751
 H          2.3046856160        2.8189729970       -3.6857091783
 H          2.7362686203        4.6110222936       -2.0435003842
 H          2.0118591771        4.3025645811        0.3295478982
 H         -1.0250145469        3.6629494293        1.6657803439
 H         -2.6193453410        3.9596103870       -0.0230660547
 H         -4.0935328082        2.9155037084       -1.7027349888
 H         -4.0744465226        0.4727175079       -2.0230669912
 C         -2.6086797092       -1.3811182028       -0.6712907911
 H         -2.9888395190       -1.5808483075       -1.6867617832
 C         -3.4986372030       -2.1413503645        0.2990536567
 C         -3.9810064814       -1.5648702897        1.5924365215
 C         -4.9387656134       -1.7508582073        0.4562071475
 H         -5.6799318577       -2.5323826924        0.5266786258
 H         -5.2756913653       -0.8650661927       -0.0606772057
 H         -4.0393834598       -2.2269287059        2.4427783199
 H         -3.6761801858       -0.5617779388        1.8487299232
 H         -3.2794923440       -3.2036552070        0.3008955798
 O         -1.0167916872       -2.5832378669        1.5637839933
