  62
        -98.94878501
 C         -1.8070466336       -1.3432427860       -0.2500110525
 C         -2.8895291887       -0.6686253158        0.3593136978
 C         -3.2712506834        0.6087838645       -0.2501193952
 C         -2.6049963009        1.0590268997       -1.3293147155
 C         -2.8617270209        2.3546217746       -2.0490214075
 C         -2.1488900455        3.5515100558       -1.4038134717
 C         -2.7749360042        4.0502369524       -0.1006696611
 H         -2.3322089223        5.0248495453        0.1146595564
 H         -3.8462704712        4.2001747983       -0.2427051735
 C         -2.5337908914        3.1276578539        1.1024540940
 H         -2.2293692200        3.7275777178        1.9643212565
 H         -1.7001370518        2.4566723667        0.8775837765
 C         -3.7519481523        2.3067659149        1.5286445490
 H         -3.4555078636        1.6611146335        2.3598353494
 H         -4.5356973831        2.9779535582        1.8879916210
 C         -4.3384634333        1.4173941107        0.4244111825
 H         -5.0433864203        0.7207484275        0.8855078864
 H         -4.8729302988        2.0263527642       -0.3040783539
 H         -1.1070790124        3.2762845466       -1.2178289052
 H         -2.1579546702        4.3708643999       -2.1266838064
 H         -3.9337193410        2.5474060110       -2.1012574065
 H         -2.4777997143        2.2303133899       -3.0637637483
 O         -1.5964882958        0.3616173025       -1.9104127171
 C         -1.1289464067       -0.8140180368       -1.3491737107
 O         -0.1347469181       -1.2985350788       -1.9238503886
 O         -3.4957718398       -1.1061100119        1.3767351366
 C         -1.2638774623       -2.6081579300        0.3944038880
 C          0.1682491501       -2.3469268722        0.7904880989
 C          1.2270233734       -3.1964302390        0.4987338493
 C          2.5294421252       -2.8235317585        0.7875972364
 C          2.8051515999       -1.5877520202        1.3445635875
 C          1.7494673807       -0.7454826616        1.6651129126
 C          0.4473004491       -1.1408419390        1.4227767518
 H         -0.3656712056       -0.4676680893        1.6674495644
 N          2.0339688228        0.5726651409        2.1342495614
 S          1.9146048688        1.6615923357        0.8421135042
 O          2.2499007053        2.9590482205        1.3914211955
 O          0.6209581260        1.5840442729        0.1982183202
 C          3.2067946915        1.0905531163       -0.2330326388
 C          2.9129044589        0.1892217815       -1.2369097237
 C          3.9516773694       -0.2922458423       -2.0195660749
 C          5.2512835700        0.1298064212       -1.7856912041
 C          5.5268254488        1.0373158286       -0.7733465171
 C          4.4959324437        1.5213013186        0.0150020178
 H          4.6565722134        2.2274167423        0.8130126807
 H          6.5385002129        1.3642229434       -0.5947716915
 H          6.0537261313       -0.2520543491       -2.3970510603
 H          3.7323663473       -0.9999546063       -2.8028570619
 H          1.8925229965       -0.1279113787       -1.3949995840
 H          1.3870024358        0.8765110401        2.8511327986
 H          3.8167863686       -1.2642083035        1.5274084061
 H          3.3414007487       -3.4915584612        0.5458629622
 H          1.0332533192       -4.1437388249        0.0225866978
 H         -1.8651020111       -2.7598047623        1.3032391841
 C         -1.4349847925       -3.8045416420       -0.5159923902
 C         -1.5645340713       -5.1811154650        0.0630386684
 C         -2.7569175445       -4.5091454793       -0.5465303129
 H         -3.1266236177       -4.8693061037       -1.4946961790
 H         -3.5305364811       -4.1390189681        0.1103957404
 H         -1.1179118226       -6.0079486973       -0.4679898705
 H         -1.5325091752       -5.2764634261        1.1378107775
 H         -0.9075667042       -3.6884029997       -1.4560313642
