  62
        -98.93909255
 C         -2.4762902997       -1.0265015288        0.3765101198
 C         -2.6982430896        0.1570320014        1.1298425694
 C         -3.9940833996        0.8168344015        0.9433547291
 C         -4.9039831995        0.2718021112        0.1161414692
 C         -6.2827411895        0.8056666012       -0.1626751310
 C         -6.3222430793        1.9004210909       -1.2376683614
 C         -5.7593883993        3.2555123110       -0.8071526919
 H         -6.0480239992        3.9796208307       -1.5715387421
 H         -6.2298394393        3.5631566213        0.1271547580
 C         -4.2324471493        3.2866348609       -0.6510614018
 H         -3.7949746193        2.4246227807       -1.1603762115
 H         -3.8341993292        4.1801242807       -1.1371122021
 C         -3.7426632594        3.3040461014        0.7971902782
 H         -4.0588479493        4.2310761416        1.2807403279
 H         -2.6495380194        3.2836037013        0.7899070183
 C         -4.2311510495        2.1209013617        1.6430555286
 H         -3.6606313095        2.1064733120        2.5750499187
 H         -5.2881818195        2.2387693019        1.8809115985
 H         -5.7819650393        1.5448540805       -2.1179762213
 H         -7.3676920093        2.0394001408       -1.5222506315
 H         -6.8786948695       -0.0406745288       -0.5106101508
 H         -6.7218419495        1.1843126216        0.7607063188
 O         -4.6676562096       -0.8776011490       -0.5658079403
 C         -3.4512640996       -1.5414571491       -0.4785884000
 O         -3.3950621797       -2.5580088793       -1.1979352397
 O         -1.8519126496        0.6353204617        1.9330026193
 C         -1.1257735997       -1.6982289189        0.5520788901
 C         -0.1754027896       -1.3537811693       -0.5704528499
 C         -0.3986520796       -1.7817223298       -1.8754657698
 C          0.5091335705       -1.4792659702       -2.8736408298
 C          1.6605768005       -0.7656050102       -2.5905727200
 C          1.8868744205       -0.3242012198       -1.2922901702
 C          0.9652379204       -0.6137193393       -0.2956039501
 H          1.1494516904       -0.2560198290        0.7072141298
 N          3.0328014305        0.4223492503       -0.9756728004
 S          3.7416793204        0.1900568808        0.5396499298
 O          3.7668223503       -1.2187218991        0.8625339303
 O          3.0941371504        1.0535681211        1.4949679794
 C          5.3930361305        0.7822481805        0.2206955096
 C          5.6187875706        2.1460024905        0.2236593692
 C          6.8936002806        2.6141553103       -0.0517811409
 C          7.9155736606        1.7163257101       -0.3234490705
 C          7.6743002305        0.3507423502       -0.3202382701
 C          6.4010123104       -0.1244045996       -0.0473698400
 H          6.1680020904       -1.1768749796       -0.0258559796
 H          8.4715946104       -0.3445303100       -0.5279307698
 H          8.9071449806        2.0835428500       -0.5358894006
 H          7.0855832407        3.6749784603       -0.0521438413
 H          4.7960232106        2.8037398707        0.4512289789
 H          3.7188673406        0.4263748700       -1.7180882303
 H          2.3748015306       -0.5451200705       -3.3694254601
 H          0.3247213805       -1.8159459106       -3.8827802397
 H         -1.2926982096       -2.3435473798       -2.0975133496
 H         -0.7099982297       -1.2648159286        1.4727791200
 C         -1.2058838498       -3.2026487788        0.7293286807
 C         -0.0128934199       -3.9215168787        1.2821868610
 C         -1.2534858000       -3.7783726283        2.1109358809
 H         -1.8625125100       -4.6529480382        2.2837667012
 H         -1.2344384000       -3.0875355080        2.9415644806
 H          0.2303912900       -4.8953092589        0.8856241114
 H          0.8508412601       -3.3273795287        1.5450850108
 H         -1.7834471998       -3.6987455290       -0.0394939292
