  62
        -98.94686252
 C         -1.6748027437       -1.2394087846        0.3819902227
 C         -1.3676166419       -0.1933082523       -0.5214069243
 C         -2.0408420981        1.0846720002       -0.2704784997
 C         -2.8293850173        1.2233754588        0.8099573117
 C         -3.5525522017        2.4761567888        1.2241990022
 C         -4.8954507759        2.6914339048        0.5122078838
 C         -4.7966809622        3.1022124125       -0.9574446541
 H         -5.7917873052        3.4295749036       -1.2650518028
 H         -4.1286388666        3.9592424248       -1.0482168338
 C         -4.3318612676        1.9821081356       -1.8983650154
 H         -4.4410713663        1.0177596538       -1.3970339274
 H         -4.9734976859        1.9595211473       -2.7819199649
 C         -2.8905404890        2.1239268165       -2.3875166565
 H         -2.6552473385        1.2614324935       -3.0157953789
 H         -2.7980044276        3.0235154666       -2.9997362171
 C         -1.8480383136        2.1899203651       -1.2635378016
 H         -0.8538571973        2.0704455809       -1.7013598027
 H         -1.8877151567        3.1578426962       -0.7637481595
 H         -5.4846448369        1.7753460523        0.5965164892
 H         -5.4259313847        3.4787811031        1.0527216617
 H         -3.7408786982        2.3850081142        2.2964688156
 H         -2.9052677121        3.3388223363        1.0611495750
 O         -3.0474673361        0.2115949471        1.6936779288
 C         -2.4810485442       -1.0380027435        1.4996774222
 O         -2.7598444271       -1.8734075203        2.3869029860
 O         -0.5732318448       -0.3215195099       -1.4888607821
 C         -1.0277973527       -2.6028913954        0.2022433902
 C          0.4699976008       -2.4227842583        0.1748850176
 C          1.3033049761       -2.9828325304       -0.7844697847
 C          2.6570279243       -2.6913454600       -0.7984248108
 C          3.2025115392       -1.8206439907        0.1276469736
 C          2.3807188179       -1.2795275908        1.1065940294
 C          1.0369287601       -1.6032915741        1.1438072505
 H          0.4030756812       -1.1615763443        1.9039364479
 N          2.9248728503       -0.3085046337        2.0010703162
 S          2.5226755294        1.2455489641        1.4630447661
 O          3.1803578489        2.1578601346        2.3758619607
 O          1.0881833541        1.4144619142        1.3550813819
 C          3.2995723270        1.2996123241       -0.1330882230
 C          2.5820422297        0.9314301664       -1.2539376534
 C          3.2264355031        0.9277693946       -2.4817442307
 C          4.5630918630        1.2856835197       -2.5659334808
 C          5.2679626755        1.6518607107       -1.4287713649
 C          4.6327660054        1.6564576436       -0.1977539369
 H          5.1350733212        1.9332442163        0.7145922683
 H          6.3074889269        1.9292047968       -1.4975070993
 H          5.0578167762        1.2778599699       -3.5244273292
 H          2.6750450524        0.6375489089       -3.3616214828
 H          1.5443618046        0.6476065443       -1.1589964192
 H          2.5658381667       -0.4063801736        2.9425482552
 H          4.2455716277       -1.5506569022        0.1028029097
 H          3.2888892680       -3.1268125002       -1.5567242966
 H          0.8869849276       -3.6332670364       -1.5362406841
 H         -1.2968454095       -3.1913382266        1.0916547912
 C         -1.5781829888       -3.2895559160       -1.0300039632
 C         -1.6241964059       -4.7854995402       -1.1049988223
 C         -2.8913460882       -4.0041981051       -0.9340964904
 H         -3.5762117822       -3.9388488682       -1.7661089312
 H         -3.3780758967       -4.0170519853        0.0306209466
 H         -1.4428182260       -5.2602707594       -2.0572876026
 H         -1.2546823748       -5.3405526917       -0.2561176435
 H         -1.3760463097       -2.7344954300       -1.9387793638
