  62
        -98.93420966
 C         -1.8734057893       -1.3954019210        0.6994471700
 C         -1.7183578598       -0.0675139709        1.1720736200
 C         -2.8052063904        0.8772111586        0.8700084404
 C         -3.8724392304        0.4391994281        0.1804237007
 C         -5.0615911209        1.2446839775       -0.2645866789
 C         -4.8674486515        1.7510464577       -1.7035606090
 C         -4.1118083722        3.0741620580       -1.8222332092
 H         -3.9219187926        3.2453253581       -2.8844563192
 H         -4.7522118025        3.8856982677       -1.4703053589
 C         -2.7805070420        3.1378633386       -1.0678244596
 H         -2.2414418416        2.1977818389       -1.2024971397
 H         -2.1798768025        3.9285701389       -1.5227459697
 C         -2.9472390517        3.4406728085        0.4292886005
 H         -3.9667096218        3.7830928780        0.6068092508
 H         -2.2917587820        4.2698566788        0.7029201803
 C         -2.6231504309        2.2788013486        1.3831419804
 H         -1.5706299308        2.3247535991        1.6778429001
 H         -3.2120755807        2.3957480083        2.2986586106
 H         -4.3409734713        0.9737528979       -2.2635895892
 H         -5.8481505517        1.8784447272       -2.1665216887
 H         -5.9208169006        0.5709369471       -0.2465171387
 H         -5.2461071411        2.0675168974        0.4199924111
 O         -3.9795718599       -0.8409191720       -0.2641706293
 C         -2.9818514094       -1.7846121015       -0.0518856396
 O         -3.2218302290       -2.8891558116       -0.5713522196
 O         -0.7067789998        0.3079094895        1.8228092197
 C         -0.7192020188       -2.3364319505        0.9981623397
 C          0.3741972808       -2.0714467199       -0.0044935706
 C          0.1154058204       -2.1199614400       -1.3710038806
 C          1.1090765800       -1.8174299995       -2.2840171009
 C          2.3730759999       -1.4484482189       -1.8552512712
 C          2.6355257903       -1.3816621188       -0.4935896213
 C          1.6404486207       -1.7021641593        0.4214533190
 H          1.8462821210       -1.6360275993        1.4809405089
 N          3.9146831302       -0.9863720883       -0.0505474917
 S          4.4260912394        0.5591061620       -0.4494522318
 O          4.5048838789        0.6681277221       -1.8835234418
 O          5.6591241195        0.7509263626        0.2787270379
 C          3.1693666691        1.6544808314        0.1836996986
 C          2.0164429688        1.8532079809       -0.5492008010
 C          1.0286563585        2.6740796604       -0.0304303607
 C          1.2089873086        3.2768665804        1.2041515093
 C          2.3697157289        3.0629609010        1.9303473689
 C          3.3595937492        2.2399708914        1.4192496786
 H          4.2802723294        2.0505405819        1.9477738983
 H          2.5028303690        3.5304482010        2.8928683189
 H          0.4376843284        3.9162177101        1.6042890595
 H          0.1189842683        2.8345445700       -0.5861729904
 H          1.9108103087        1.3716636508       -1.5081176710
 H          4.0510921106       -1.1285122982        0.9408762083
 H          3.1500204796       -1.1864388085       -2.5548630314
 H          0.8974967097       -1.8636740796       -3.3418883108
 H         -0.8763469596       -2.3893818005       -1.7054275403
 H         -0.3416733887       -2.0185694403        1.9833695596
 C         -1.1056966181       -3.8011213507        1.1155408597
 C         -0.7004248179       -4.8487202404        0.1269067496
 C         -0.0599825175       -4.8137141102        1.4800684794
 H         -0.3087215269       -5.5835899703        2.1945516894
 H          0.9628993123       -4.4716171597        1.5360891991
 H         -1.4143684276       -5.6275301508       -0.0932673102
 H         -0.1066273783       -4.5523665301       -0.7233473306
 H         -2.0825204779       -3.9278922711        1.5693231800
