  62
        -98.93849763
 C          1.8937702510        1.2634198403        0.4236256299
 C          2.6771431608        0.8376820201       -0.6728878502
 C          3.8995642508        0.0677193900       -0.3584858704
 C          4.1764509110       -0.2164734799        0.9275345996
 C          5.3311305010       -1.0063698000        1.4851961795
 C          5.1689634308       -2.5207325000        1.2827815096
 C          4.7121315305       -2.9350523301       -0.1132835202
 H          3.7508254505       -2.4656928100       -0.3310212001
 H          4.5482208004       -4.0159543301       -0.1016327901
 C          5.6963896103       -2.6234718603       -1.2383279804
 H          5.2948860501       -3.0708985703       -2.1511751203
 H          6.6512358203       -3.1085105804       -1.0238228106
 C          5.9524623305       -1.1394405503       -1.5124714006
 H          6.4422638403       -1.0695218905       -2.4880428507
 H          6.6458724906       -0.7180424504       -0.7894666907
 C          4.6937873805       -0.2817267002       -1.5939387005
 H          3.9850074204       -0.7468627902       -2.2887084003
 H          4.9560269206        0.6789078197       -2.0533295606
 H          4.4247948108       -2.8807508499        1.9977543598
 H          6.1200070007       -3.0029997701        1.5152602395
 H          6.2654799809       -0.6580016202        1.0554987693
 H          5.3612387812       -0.8009546399        2.5576633395
 O          3.3602408512        0.1729968402        1.9498984997
 C          2.2145507412        0.9108293503        1.7334747698
 O          1.5693885114        1.1824214105        2.7681205199
 H         -0.3422461490       -0.2291411094        1.0070196704
 C         -0.7819847692        0.0578216105        0.0593795504
 C         -0.3888401291        1.2548356905       -0.5287889398
 C         -0.9677182993        1.6221552604       -1.7352139997
 C         -1.8948223195        0.7946430405       -2.3471807695
 C         -2.2729814395       -0.4014146494       -1.7670006393
 C         -1.7129049593       -0.7690250194       -0.5489373094
 N         -2.1117210094       -1.9698152193        0.0630973608
 S         -3.7513785494       -2.3055459891        0.1128761511
 O         -3.9353974893       -3.1290104690        1.2874095712
 O         -4.1621335097       -2.8951027492       -1.1371328988
 C         -4.5502807192       -0.7235929490        0.3228780911
 C         -4.2310462389        0.0242179510        1.4390508510
 C         -4.8160541588        1.2693868011        1.6010192210
 C         -5.7060952289        1.7432650312        0.6491083811
 C         -6.0214884591        0.9775701611       -0.4622951188
 C         -5.4375240593       -0.2678006590       -0.6306795388
 H         -5.6509565395       -0.8943488890       -1.4812698987
 H         -6.7158253592        1.3474500011       -1.1992982587
 H         -6.1560632887        2.7150650212        0.7768122811
 H         -4.5715896586        1.8653535312        2.4657558309
 H         -3.5379257389       -0.3724458790        2.1640675509
 H         -1.6759550893       -2.1377752293        0.9577132307
 H         -2.9839290897       -1.0609413194       -2.2376624491
 H         -2.3280139296        1.0858694004       -3.2916560794
 H         -0.6854758692        2.5497682903       -2.2040466198
 C          0.6362853311        2.0871451404        0.2031441200
 H          0.2391805413        2.2970977405        1.2069030901
 C          0.9622277911        3.4000421103       -0.4749008402
 C          0.0439632213        4.5722956104       -0.3093783701
 C          1.3805147614        4.5656713103        0.3680622197
 H          2.1538107114        5.2202566902       -0.0050726605
 H          1.4134813216        4.4197562304        1.4382412597
 H         -0.8343804886        4.4353972406        0.3028077500
 H         -0.1009112988        5.2368755104       -1.1474251501
 H          1.4621223710        3.2684793702       -1.4268748602
 O          2.3827630806        1.0845151200       -1.8713140702
