  62
        -98.94323267
 C          1.8549701873       -0.5980486891       -0.1753340212
 C          2.9310095585       -0.7126753439       -1.0869577606
 C          4.2689037935       -0.7873027656       -0.4900406318
 C          4.4039755627       -0.7676033600        0.8487341772
 C          5.7010941149       -0.8500213662        1.6070474104
 C          6.4221413125        0.4967413513        1.7571671916
 C          7.0736901514        1.0330107356        0.4817287367
 H          7.7217095025        1.8607577194        0.7767720790
 H          7.7095949451        0.2610618452        0.0472635306
 C          6.0798753502        1.5377574717       -0.5738055605
 H          5.1053502845        1.7010662634       -0.1075065078
 H          6.4154948464        2.5035874816       -0.9584400307
 C          5.9042205708        0.6082730822       -1.7748037978
 H          6.8435359247        0.5431460677       -2.3284088579
 H          5.1523255444        1.0433966277       -2.4383959223
 C          5.4504624676       -0.8117973119       -1.4121052582
 H          5.1447591098       -1.3188546750       -2.3306252343
 H          6.2737198333       -1.3669472259       -0.9632077069
 H          5.7112991060        1.2326294732        2.1402476846
 H          7.2028260719        0.3659905742        2.5100671625
 H          5.4549055742       -1.2211390196        2.6041418416
 H          6.3644490730       -1.5672479112        1.1229852184
 O          3.3408604515       -0.6852544754        1.6923189467
 C          2.0448866816       -0.5791677818        1.2067478770
 O          1.1721921865       -0.4811916033        2.0892344298
 O          2.7801561188       -0.7473319691       -2.3383687971
 C          0.4432267281       -0.4922556379       -0.7176744319
 C         -0.2245349745        0.7860225515       -0.2724038710
 C          0.5225929344        1.9561193727       -0.1659366965
 C         -0.0658671864        3.1387051030        0.2368351021
 C         -1.4202997910        3.1886751544        0.5152088808
 C         -2.1815811395        2.0345491100        0.3883000071
 C         -1.5824852318        0.8423408783        0.0042520378
 H         -2.1921756497       -0.0416417221       -0.0843930611
 N         -3.5601561778        2.0480977506        0.6536613301
 S         -4.5980927959        1.2899487414       -0.4206723079
 O         -4.0787445979        1.3155256333       -1.7680057670
 O         -5.8750555078        1.9427473113       -0.2207204839
 C         -4.7245819505       -0.3884853162        0.1582629761
 C         -4.7511142384       -0.6337670146        1.5169201382
 C         -4.9047249577       -1.9386705004        1.9572670942
 C         -5.0385792273       -2.9691147734        1.0387762926
 C         -5.0149037409       -2.7054766421       -0.3219745720
 C         -4.8562734013       -1.4028042311       -0.7691342956
 H         -4.8195196375       -1.1550082455       -1.8178631593
 H         -5.1172111411       -3.5073209632       -1.0359662042
 H         -5.1597258001       -3.9834483067        1.3851302410
 H         -4.9196228042       -2.1482278755        3.0147634066
 H         -4.6423466208        0.1892813508        2.2032157785
 H         -3.9242472752        2.9452720847        0.9409579776
 H         -1.8834701785        4.1131192069        0.8257537646
 H          0.5325649313        4.0330446568        0.3264122227
 H          1.5789311785        1.9257850692       -0.3962450918
 H          0.5526633102       -0.4507855435       -1.8127102273
 C         -0.3461057196       -1.7347279154       -0.3569665673
 C         -1.3934379623       -2.2722302135       -1.2842821566
 C         -0.0918082080       -2.9966838257       -1.1241273674
 H         -0.0840473555       -3.9337473127       -0.5883552992
 H          0.6257900648       -2.9480152186       -1.9302050101
 H         -2.2802833250       -2.7133996077       -0.8547740156
 H         -1.5694345010       -1.7370498429       -2.2056673483
 H         -0.5137916366       -1.8215540902        0.7108177705
