  62
        -98.93584452
 C         -2.4963355598       -1.0186349796        0.5813584298
 C         -2.6132815897        0.2694822005        1.1649199697
 C         -3.8961035596        0.9559604706        0.9815574896
 C         -4.8890798596        0.3405079607        0.3146925896
 C         -6.2681734596        0.8902603808        0.0695338695
 C         -6.3628549694        1.8210894807       -1.1469935106
 C         -5.7217328693        3.1971714706       -0.9638190707
 H         -6.0492144592        3.8174576606       -1.8004062108
 H         -6.1016319293        3.6554343708       -0.0502554407
 C         -4.1868457593        3.1814147905       -0.9336710507
 H         -3.8223273294        2.2365841804       -1.3438073606
 H         -3.8008897092        3.9772568304       -1.5746783307
 C         -3.5768636893        3.3836033105        0.4536779593
 H         -2.4891605493        3.3147532604        0.3639677194
 H         -3.8213754292        4.3831894806        0.8202028892
 C         -4.0302431294        2.3560840807        1.4990675894
 H         -5.0589326994        2.5539402309        1.8001767194
 H         -3.3833456694        2.4496714107        2.3749962894
 H         -5.9106911995        1.3201005606       -2.0058894405
 H         -7.4235539894        1.9642893708       -1.3653531806
 H         -6.6154867695        1.4158019109        0.9594779895
 H         -6.9183645897        0.0301212609       -0.1036075704
 O         -4.7491670998       -0.9033846394       -0.2101262603
 C         -3.5506128698       -1.6052174595       -0.1211102302
 O         -3.5811556099       -2.7084233996       -0.6945327100
 O         -1.6861077896        0.8159363605        1.8234877596
 C         -1.1645849999       -1.7242384497        0.7590852399
 C         -0.2245992998       -1.4212102299       -0.3805679201
 C         -0.6360605998       -1.5262690700       -1.7056847001
 C          0.2449478203       -1.2491482302       -2.7347833701
 C          1.5460950003       -0.8640783603       -2.4645455701
 C          1.9706246503       -0.7637290402       -1.1442975001
 C          1.0822712602       -1.0394910100       -0.1134255101
 H          1.4153932402       -0.9345748700        0.9080335299
 N          3.3037128703       -0.4285038803       -0.8531507101
 S          3.6597479304        0.5042208298        0.5083279598
 O          3.5368091903       -0.3215834101        1.6825926199
 O          2.8888086205        1.7271972398        0.4911594397
 C          5.3811147304        0.8480579595        0.1968240498
 C          6.3053374703       -0.1482203905        0.4494809499
 C          7.6432603403        0.0966100593        0.1851174199
 C          8.0329183205        1.3265827992       -0.3243584502
 C          7.0944551706        2.3173108593       -0.5704351303
 C          5.7539981506        2.0782870094       -0.3099374903
 H          4.9902235107        2.8204977295       -0.4785165704
 H          7.4008319207        3.2733893592       -0.9632790604
 H          9.0750741205        1.5151054490       -0.5283315402
 H          8.3760520003       -0.6702850308        0.3776278400
 H          5.9567684202       -1.0838751705        0.8543081600
 H          3.7991839804       -0.0803636705       -1.6632513201
 H          2.2304471103       -0.6464404405       -3.2704838101
 H         -0.0864920397       -1.3310362503       -3.7591125901
 H         -1.6491696698       -1.8333683399       -1.9176672301
 H         -0.7278205998       -1.2731398896        1.6656132499
 C         -1.3014720000       -3.2184434296        1.0202195001
 C         -0.8836048401       -4.2701222198        0.0413227002
 C         -0.0775966301       -4.0454243298        1.2830627902
 H         -0.1131957202       -4.7855822897        2.0680453003
 H          0.8805371999       -3.5575626899        1.1787918701
 H         -1.4965322102       -5.1553300397       -0.0302839297
 H         -0.4683108301       -3.9521480999       -0.9017316698
 H         -2.1779324501       -3.4430358295        1.6198138401
