  62
        -98.93280262
 C         -2.4204842416       -1.0265996600        0.3677293537
 C         -2.6335296380        0.1768201948        1.0875997640
 C         -3.9551486394        0.8142834507        0.9585448382
 C         -4.8871158014        0.2237114694        0.1909148920
 C         -6.2814252169        0.7035037323       -0.1052966459
 C         -6.3127635129        1.5311615204       -1.4011206818
 C         -6.0223043390        3.0202932990       -1.2201055450
 H         -5.9497732793        3.4614040901       -2.2167939169
 H         -6.8668212854        3.4918405414       -0.7133530329
 C         -4.7431637238        3.3456889191       -0.4445161218
 H         -3.9352090176        2.6891753526       -0.7734365564
 H         -4.4495739813        4.3671858050       -0.6941536328
 C         -4.9159702838        3.2363955303        1.0778677374
 H         -5.9767710169        3.1522644151        1.3126094834
 H         -4.5666686686        4.1575759467        1.5490851693
 C         -4.1476219262        2.0848917063        1.7411991316
 H         -3.1328645618        2.4163795799        1.9844104088
 H         -4.6281612003        1.8372713263        2.6940188397
 H         -7.3004167048        1.4320902611       -1.8558464234
 H         -5.5880789043        1.0959889255       -2.0939353333
 H         -6.6814466177        1.2670478539        0.7321990798
 H         -6.8902628168       -0.1913386410       -0.2501501319
 O         -4.6434592625       -0.9288406410       -0.4871548797
 C         -3.4215776401       -1.5780325108       -0.4326484649
 O         -3.3803204992       -2.6080083306       -1.1336858125
 O         -1.7492438905        0.6991384625        1.8216675454
 C         -1.0649939565       -1.6881091910        0.5366448553
 C         -0.1038057804       -1.3749790537       -0.5862013961
 C         -0.4468737210       -1.5662792928       -1.9198346379
 C          0.4688676071       -1.2965549377       -2.9207297149
 C          1.7399108200       -0.8459150900       -2.6134938080
 C          2.1003857537       -0.6697497926       -1.2816029026
 C          1.1737924124       -0.9262791413       -0.2809930730
 H          1.4546191844       -0.7614587359        0.7481037189
 N          3.4100285915       -0.2832601859       -0.9541939751
 S          3.7543607964        0.5440957809        0.4718080951
 O          3.6017905062       -0.3597899534        1.5840016757
 O          3.0050899259        1.7794513269        0.5350461286
 C          5.4858063204        0.8781405393        0.2099991959
 C          6.3778081324       -0.1706270356        0.3349224557
 C          7.7250260894        0.0657170849        0.1142306921
 C          8.1562648325        1.3399089285       -0.2249515342
 C          7.2500064456        2.3825363290       -0.3441033044
 C          5.9001989811        2.1523924350       -0.1266373776
 H          5.1602560584        2.9330427318       -0.2017721947
 H          7.5885997147        3.3723856727       -0.6046182146
 H          9.2057205614        1.5217523296       -0.3947718139
 H          8.4328963087       -0.7419590802        0.2080744737
 H          5.9978579268       -1.1407410720        0.6096065034
 H          3.9103889743        0.1133500960       -1.7378472287
 H          2.4520667257       -0.6393820417       -3.3978176656
 H          0.1884664536       -1.4398459402       -3.9534946895
 H         -1.4333713951       -1.9293755559       -2.1630471678
 H         -0.6453962688       -1.2511987064        1.4540427663
 C         -1.1464300229       -3.1928226259        0.7205304873
 C         -0.0129174278       -3.9036272319        1.3940143608
 C         -1.3296665031       -3.7579837337        2.0952258310
 H         -1.9534764614       -4.6311268433        2.2134750661
 H         -1.3944962192       -3.0597928139        2.9174374359
 H          0.2701983241       -4.8792704919        1.0300721671
 H          0.8170944168       -3.3059398568        1.7413325397
 H         -1.6444773840       -3.6958942501       -0.0981087718
