  62
        -98.94321012
 C          1.8566813083        0.8027734077        0.7164931608
 C          2.8230884772        1.1932241677       -0.2431857391
 C          4.1653099616        0.6213484214       -0.0658317500
 C          4.4185605221       -0.2029819269        0.9654618052
 C          5.7397378469       -0.8492965044        1.2826042136
 C          6.0050817137       -2.1430093370        0.5004472589
 C          6.3254112562       -1.9531372458       -0.9828334443
 H          7.1288206404       -1.2235093541       -1.0890078499
 H          6.7020130086       -2.9086910415       -1.3532905008
 C          5.1253001978       -1.5295860359       -1.8413740041
 H          5.0983465919       -2.1327451078       -2.7517198174
 H          4.1988365900       -1.7310449107       -1.2981284123
 C          5.1390378826       -0.0622835822       -2.2699762641
 H          5.9922811055        0.1191418282       -2.9272776694
 H          4.2266721799        0.1364093763       -2.8376586172
 C          5.1990336623        0.9346043460       -1.1054853639
 H          6.1948171647        0.9378927860       -0.6631408938
 H          4.9850893135        1.9320060275       -1.4968174387
 H          5.1370593246       -2.7983433452        0.6051827677
 H          6.8551853893       -2.6405536749        0.9731175400
 H          6.5479766129       -0.1403082447        1.1009184296
 H          5.7202474643       -1.0890886924        2.3479644196
 O          3.4694433732       -0.5369653941        1.8804955329
 C          2.1743253482       -0.0612788604        1.7688340823
 O          1.4071615565       -0.4637182995        2.6679002669
 H         -1.3529045962       -0.7230387865        1.0775496767
 C         -1.2244949452       -0.5071004670        0.0269748819
 C         -0.3504532694        0.4937644334       -0.3752382581
 C         -0.1802561834        0.7254105451       -1.7367823689
 C         -0.8683662582       -0.0318388719       -2.6664876419
 C         -1.7511125221       -1.0177878022       -2.2616532266
 C         -1.9263284635       -1.2598232694       -0.9048399519
 N         -2.8143591551       -2.2578005518       -0.4619043481
 S         -3.9596346883       -1.8524389004        0.6897959004
 O         -3.3369018841       -1.6705629198        1.9754131526
 O         -4.9534400504       -2.8995672950        0.6008032119
 C         -4.6377842387       -0.3125411819        0.0993715727
 C         -5.5906209207       -0.3564856820       -0.8998805928
 C         -6.0679202130        0.8334743136       -1.4241451886
 C         -5.5782915789        2.0411636395       -0.9500669580
 C         -4.6230055334        2.0686962126        0.0539803321
 C         -4.1455981172        0.8812475376        0.5859547393
 H         -3.4073400402        0.8583149034        1.3712272098
 H         -4.2439146274        3.0085462286        0.4224449689
 H         -5.9444754640        2.9678225988       -1.3627439431
 H         -6.8149393174        0.8162762248       -2.2012152960
 H         -5.9500886722       -1.3164807315       -1.2334777900
 H         -3.2468974602       -2.7800266487       -1.2108663369
 H         -2.2915951982       -1.6051197547       -2.9885576013
 H         -0.7210206723        0.1520578023       -3.7198275783
 H          0.5200426628        1.4794647837       -2.0587677950
 C          0.4106396997        1.2755518530        0.6692054491
 H         -0.0131944366        1.0184828198        1.6497044328
 C          0.2852965632        2.7728801529        0.4711276882
 C         -0.9706849383        3.4602297579        0.9104944390
 C          0.3038113737        3.6694130245        1.6708156461
 H          0.8042853405        4.6228983929        1.5932941402
 H          0.4021913097        3.2040076279        2.6414039437
 H         -1.3502144423        4.2724633499        0.3102368826
 H         -1.7347903242        2.8524678463        1.3711143393
 H          0.7760454021        3.1360521204       -0.4212685570
 O          2.6054258962        1.9794221009       -1.2008562562
