  62
        -98.93971458
 C         -1.7562920313       -0.7213038985        0.2011158308
 C         -3.0580061254       -0.9071982910        0.7219043566
 C         -3.9650500376        0.2500976492        0.6439541993
 C         -3.5212614405        1.3997730852        0.1070733798
 C         -4.2505577920        2.7121644837       -0.0388532808
 C         -5.7157937256        2.6640319628       -0.4916539855
 C         -6.0553894112        1.5297254971       -1.4694871252
 H         -6.5734479991        1.9491766069       -2.3339465363
 H         -5.1390932344        1.0626470863       -1.8347504084
 C         -6.9611276868        0.4611290922       -0.8528007497
 H         -7.7433496858        0.9564672611       -0.2734030351
 H         -7.4515680520       -0.0909734250       -1.6581989687
 C         -6.2553850873       -0.5642261559        0.0336651585
 H         -5.6326716359       -1.2194482004       -0.5816599690
 H         -7.0205659285       -1.1925646696        0.4959060666
 C         -5.3634466305        0.0206639709        1.1409996150
 H         -5.7969076260        0.9255736259        1.5595442674
 H         -5.2819196845       -0.7264289475        1.9352399043
 H         -6.3651174618        2.5878502980        0.3792601650
 H         -5.9318018499        3.6255143039       -0.9605501328
 H         -4.1889711956        3.2429454538        0.9156530358
 H         -3.6634831874        3.2830094215       -0.7623047848
 O         -2.2526712027        1.5369294028       -0.3737438435
 C         -1.3446268212        0.4907971703       -0.3478883594
 O         -0.2306533703        0.7667032854       -0.8310429247
 H          1.8830474825       -1.9504167750       -0.5628419941
 C          1.7389038204       -1.5888672668        0.4409393782
 C          0.4692281633       -1.4848682533        0.9857433723
 C          0.3397232139       -1.0056630512        2.2879743016
 C          1.4498025345       -0.6323865850        3.0192107207
 C          2.7153418474       -0.7201327560        2.4641498911
 C          2.8564872112       -1.1996989441        1.1687878277
 N          4.1309267372       -1.3228789271        0.5811821612
 S          4.4558968835       -0.5081441858       -0.8462060152
 O          3.5648027713       -0.9570824272       -1.8829527617
 O          5.8676339809       -0.7268213816       -1.0778610541
 C          4.1819026995        1.2094888507       -0.4494218373
 C          2.8932237475        1.7017460988       -0.4010701912
 C          2.7016933193        3.0204808339       -0.0162124322
 C          3.7875155251        3.8170020640        0.3114335305
 C          5.0755252042        3.3051933501        0.2566227126
 C          5.2759094910        1.9881360619       -0.1216698012
 H          6.2584088975        1.5482744019       -0.1821594458
 H          5.9197905253        3.9263826833        0.5090513485
 H          3.6279498366        4.8413916603        0.6095459130
 H          1.6955270509        3.4072783128        0.0227370915
 H          2.0548148901        1.0750759081       -0.6621502988
 H          4.8906450895       -1.1638089114        1.2288516624
 H          3.5853578238       -0.4242588138        3.0307072699
 H          1.3312194326       -0.2641428931        4.0269935771
 H         -0.6501309721       -0.9304888583        2.7175304982
 C         -0.7765272153       -1.8798561507        0.2334606805
 H         -1.2826696270       -2.6745344791        0.8017966592
 C         -0.5078366164       -2.3843429226       -1.1684801421
 C         -0.0978584036       -3.8088374634       -1.3879055790
 C         -1.4676785832       -3.3525595187       -1.7893171897
 H         -1.6927226474       -3.2537686194       -2.8407909207
 H         -2.3088693764       -3.6696076128       -1.1900502197
 H          0.6226232250       -4.0216943052       -2.1634646404
 H         -0.0088217302       -4.4422968270       -0.5182761203
 H         -0.0765439596       -1.6267710400       -1.8145317936
 O         -3.4420879416       -1.9879845105        1.2435176025
