  62
        -98.93585172
 C         -2.4928217169       -1.0119389017        0.5924606402
 C         -2.5843430698        0.2763812230        1.1800516283
 C         -3.8470234413        0.9996429644        0.9841999386
 C         -4.8391183948        0.4083595623        0.2943486917
 C         -6.1593266529        1.0444669234       -0.0291759198
 C         -6.1067383333        1.7742513164       -1.3786666313
 C         -4.9039735556        2.7055917029       -1.5304308583
 H         -3.9888356405        2.1087549140       -1.5446845486
 H         -4.9873060265        3.1886488102       -2.5063724002
 C         -4.7900333173        3.7778002168       -0.4377652620
 H         -4.5601801003        4.7356356465       -0.9090878785
 H         -5.7467633082        3.8892889550        0.0736364835
 C         -3.6924195956        3.5166147685        0.5957143669
 H         -3.5544690376        4.4279881345        1.1838746657
 H         -2.7469793925        3.3119493034        0.0859581408
 C         -3.9629728490        2.3733870719        1.5820738050
 H         -4.9423273594        2.5107264918        2.0453115826
 H         -3.2011579150        2.4235931758        2.3658436097
 H         -7.0288577862        2.3457579641       -1.4981758982
 H         -6.0631757489        1.0271841472       -2.1743580556
 H         -6.9157649843        0.2596579248       -0.0795316935
 H         -6.4240199426        1.7414680703        0.7634931369
 O         -4.7278589678       -0.8349465408       -0.2329203507
 C         -3.5546929100       -1.5737736880       -0.1187819431
 O         -3.6107134823       -2.6809256905       -0.6822938223
 O         -1.6491996253        0.7948574798        1.8504584664
 C         -1.1817112557       -1.7523476790        0.7840501907
 C         -0.2307302594       -1.4880635218       -0.3560072227
 C         -0.6337940019       -1.6237836937       -1.6811484131
 C          0.2567098826       -1.3812037153       -2.7107641287
 C          1.5585334593       -0.9975071403       -2.4414266033
 C          1.9736513986       -0.8640833118       -1.1213137732
 C          1.0770012670       -1.1088396693       -0.0897375378
 H          1.4046095934       -0.9799980863        0.9309163298
 N          3.3045151927       -0.5226200583       -0.8263845232
 S          3.6273489464        0.4736203156        0.4994109375
 O          3.5281291744       -0.3113187170        1.7036397750
 O          2.8151968045        1.6676238967        0.4329537995
 C          5.3368228087        0.8661620272        0.1793156301
 C          5.6611619984        2.0783417267       -0.3995800006
 C          6.9919561682        2.3578955514       -0.6687253399
 C          7.9694721623        1.4241591392       -0.3595176208
 C          7.6284482986        0.2119453000        0.2222340287
 C          6.3002693521       -0.0730696564        0.4957606336
 H          5.9887217506       -0.9963824887        0.9554194064
 H          8.3916137569       -0.5100979233        0.4638276450
 H          9.0041297645        1.6438250130       -0.5704061551
 H          7.2604170984        3.3008655230       -1.1171401485
 H          4.8678358433        2.7761314719       -0.6150233482
 H          3.8109561822       -0.2067743466       -1.6429874213
 H          2.2501143967       -0.8056070761       -3.2477405974
 H         -0.0681503906       -1.4881247961       -3.7348796884
 H         -1.6483171829       -1.9264384749       -1.8923789529
 H         -0.7362340957       -1.3020597236        1.6866054398
 C         -1.3614243257       -3.2385417502        1.0642649414
 C         -0.9661883803       -4.3162684132        0.1044927199
 C         -0.1615929820       -4.0936508768        1.3475137461
 H         -0.2207070537       -4.8202400097        2.1436408947
 H          0.8094391458       -3.6323768525        1.2411116038
 H         -1.6025105810       -5.1856165489        0.0433129477
 H         -0.5365942814       -4.0253010019       -0.8407874431
 H         -2.2471829866       -3.4303682719        1.6615898865
