  62
        -98.94691247
 C         -0.5052820046       -1.7911836518       -0.6705353783
 C         -1.6426918930       -2.0640337963        0.1318305670
 C         -2.8142392362       -1.2042272461       -0.0711521257
 C         -2.7571556623       -0.2274036373       -0.9935681333
 C         -3.8769004287        0.7219100692       -1.3103465720
 C         -3.7897433356        2.0127659677       -0.4852666998
 C         -3.5443891909        1.7823923128        1.0060833044
 H         -2.5506973933        1.3491048361        1.1522499146
 H         -3.5288638012        2.7636435731        1.4876560243
 C         -4.5974371518        0.8986084236        1.6897275827
 H         -4.8630463296        1.3543408114        2.6460827096
 H         -5.5033995412        0.8662410199        1.0825434548
 C         -4.1382820131       -0.5292147293        1.9920876493
 H         -3.1688363472       -0.4990814965        2.4973266954
 H         -4.8563212092       -0.9768095128        2.6848819965
 C         -4.0227293272       -1.4646746465        0.7816603216
 H         -4.9381850739       -1.4150025691        0.1881806361
 H         -3.9105093741       -2.4858383468        1.1578160190
 H         -2.9728250967        2.6245353195       -0.8749516790
 H         -4.7192971845        2.5702511187       -0.6183745010
 H         -3.8201363328        0.9748994032       -2.3706321588
 H         -4.8252971628        0.2234682848       -1.1179022673
 O         -1.6514492576        0.0142597987       -1.7379987349
 C         -0.4869339463       -0.7271266905       -1.5729505514
 O          0.4522248770       -0.3312456630       -2.2897023930
 O         -1.6785380273       -3.0038689816        0.9730798684
 C          0.7142559205       -2.6610909039       -0.4221898595
 C          1.5833666671       -2.0613408070        0.6595006185
 C          2.1692278730       -2.8572875601        1.6372552542
 C          2.9314780616       -2.2892567782        2.6423446529
 C          3.0944779567       -0.9169512892        2.7131146925
 C          2.5125487377       -0.1142691486        1.7396260882
 C          1.7954095896       -0.6924202747        0.7037882932
 H          1.3677228893       -0.0580957619       -0.0557559243
 N          2.6216220489        1.2839350830        1.7753972925
 S          1.2790987253        2.1937223378        1.3449931937
 O          1.4673905071        3.4567684600        2.0321599780
 O          0.0462858598        1.5005061854        1.6411567497
 C          1.4430176079        2.4791879825       -0.4019814194
 C          0.2934069436        2.6531896492       -1.1437641083
 C          0.4002169678        2.9225417447       -2.4976762190
 C          1.6525794509        3.0165972680       -3.0820603983
 C          2.7989502645        2.8444694315       -2.3221104146
 C          2.6983299245        2.5760499246       -0.9668550337
 H          3.5681684481        2.4259636935       -0.3489856302
 H          3.7712829331        2.9113186829       -2.7835213473
 H          1.7339186222        3.2171663004       -4.1388121166
 H         -0.4924838206        3.0418590260       -3.0906579061
 H         -0.6604079108        2.5495593016       -0.6500798064
 H          3.0837512600        1.6595517188        2.5910236873
 H          3.6571930766       -0.4688329856        3.5178576316
 H          3.3818001533       -2.9180505365        3.3952717853
 H          2.0079087342       -3.9246547011        1.6189039138
 H          0.3215888445       -3.6129644023       -0.0370411791
 C          1.5405098625       -2.9488870177       -1.6602271791
 C          2.3498695504       -4.2077718944       -1.7289918797
 C          1.1260230623       -4.0559778067       -2.5805765640
 H          1.2451038586       -3.9109100802       -3.6434373754
 H          0.2456856509       -4.6227847788       -2.3139994136
 H          3.3166064066       -4.1698497038       -2.2066026646
 H          2.2996720239       -4.8864291086       -0.8913695529
 H          1.9544237497       -2.0568980481       -2.1116699635
