  62
        -98.94529545
 C          1.4936546883        0.7948090967       -0.4935278141
 C          2.6405640385        1.0083652182        0.3156626535
 C          3.3832954017       -0.1855361756        0.7286867734
 C          2.9378031557       -1.4020381035        0.3668147577
 C          3.5576009239       -2.7214689017        0.7402518528
 C          4.7178371185       -3.1489935763       -0.1691410606
 C          6.0140903171       -2.3593652988        0.0170928907
 H          6.2848437757       -2.3532705972        1.0733663333
 H          6.7978009615       -2.8998559141       -0.5173757260
 C          5.9589978868       -0.9191237939       -0.5111957732
 H          5.1082226291       -0.8121851049       -1.1879339861
 H          6.8596614162       -0.7097914414       -1.0926018727
 C          5.8625962983        0.1517854142        0.5754293856
 H          6.7703410990        0.1407101006        1.1827553722
 H          5.7942003643        1.1281750372        0.0892182489
 C          4.6515697677        0.0014875637        1.5057470603
 H          4.8034868777       -0.8329590259        2.1904961120
 H          4.5503137165        0.9193277866        2.0902003022
 H          4.3914995524       -3.0748164433       -1.2089815321
 H          4.9244504950       -4.2010754584        0.0404098869
 H          3.8985927189       -2.6839974012        1.7754989167
 H          2.7637943058       -3.4681425652        0.6647966178
 O          1.8262460995       -1.5708346128       -0.3921245709
 C          1.0810568223       -0.4903938504       -0.8450621197
 O          0.1091200150       -0.8286151186       -1.5484722067
 H         -1.3675393057        0.4694496511       -0.1794448089
 C         -1.3558345674        1.3970388385        0.3675676148
 C         -0.3563215025        2.3280963150        0.1175105891
 C         -0.3489210700        3.5163967663        0.8373839269
 C         -1.3130457895        3.7600014475        1.7993195336
 C         -2.2852723026        2.8161310634        2.0710432851
 C         -2.3026651624        1.6220136220        1.3554359520
 N         -3.2864501758        0.6619703690        1.6199727673
 S         -3.0299560105       -0.9899890708        1.4837079881
 O         -3.8642318264       -1.5589132642        2.5244796529
 O         -1.6277665233       -1.3248203981        1.5418760432
 C         -3.7624388070       -1.3888535504       -0.0895992856
 C         -2.9840775294       -1.6572085890       -1.1960478983
 C         -3.6133070752       -1.9454505814       -2.3988315405
 C         -4.9966158515       -1.9615483752       -2.4748683541
 C         -5.7646164229       -1.6920828922       -1.3514477177
 C         -5.1439870863       -1.4028052459       -0.1483405680
 H         -5.7007617382       -1.2017068289        0.7517505547
 H         -6.8409582113       -1.7068916812       -1.4110890557
 H         -5.4773875254       -2.1867171863       -3.4139155630
 H         -3.0097841068       -2.1527374240       -3.2682808575
 H         -1.9075588298       -1.6331562582       -1.1203885167
 H         -3.8832831759        0.8763785742        2.4051027272
 H         -3.0254384905        2.9943070673        2.8364150991
 H         -1.2976629159        4.6858543388        2.3541665162
 H          0.4317885456        4.2400378145        0.6551841426
 C          0.7215508959        2.0390674760       -0.9015756558
 H          1.4514704162        2.8590995649       -0.8499723688
 C          0.1478009671        1.9987520613       -2.3029201776
 C         -0.1470195063        3.2916541370       -3.0007813221
 C          0.9969600235        2.4374048064       -3.4564792551
 H          0.9079919205        1.9050522523       -4.3913482082
 H          2.0013524009        2.7712152635       -3.2393105349
 H         -1.0257141553        3.3498629093       -3.6241926842
 H          0.0827880048        4.2071535820       -2.4770501348
 H         -0.5270516702        1.1703836421       -2.4708569796
 O          3.0280987384        2.1537359854        0.6730442775
