  62
        -98.94079327
 C          2.3899085682        1.2536754274        0.1397225299
 C          2.2720696561       -0.1542911776        0.0199841232
 C          3.3827222638       -0.9406616457        0.5845565376
 C          4.4030172674       -0.3124344851        1.1941730605
 C          5.6199174522       -0.9875852012        1.7555989580
 C          6.7390231135       -1.0776294882        0.7085989630
 C          6.2801373259       -1.6306428736       -0.6406518028
 H          5.5827406320       -0.9246804136       -1.0973809016
 H          7.1581998379       -1.6786858912       -1.2882455405
 C          5.6219073953       -3.0155906184       -0.5686818474
 H          6.0239524056       -3.6369049518       -1.3717162649
 H          5.8781062118       -3.4996360887        0.3743931316
 C          4.1008983907       -3.0046563659       -0.7340380658
 H          3.7669697618       -4.0347849687       -0.8850587378
 H          3.8339454835       -2.4412277160       -1.6319794032
 C          3.3049930189       -2.4353779609        0.4475465386
 H          3.6196384022       -2.9238749172        1.3721196358
 H          2.2483615476       -2.6671567641        0.2810598799
 H          7.5361245837       -1.7064439647        1.1091729161
 H          7.1443642016       -0.0759600823        0.5479496507
 H          5.9755906473       -0.4025094951        2.6053728257
 H          5.3493155926       -1.9835882219        2.1007338277
 O          4.4604263123        1.0366327139        1.3290056240
 C          3.4639490713        1.8463946610        0.8123117386
 O          3.6423554405        3.0634418619        1.0169965582
 O          1.3075997634       -0.7447666458       -0.5326117592
 C          1.3316855013        2.2116707157       -0.3852981676
 C         -0.0332809700        1.7676160932        0.0763960230
 C         -0.4209158753        2.0176728341        1.3892118149
 C         -1.6496048955        1.5890087232        1.8547991040
 C         -2.5120657445        0.8939564268        1.0248528602
 C         -2.1241600913        0.6198058345       -0.2793477307
 C         -0.8993496412        1.0737506722       -0.7521596482
 H         -0.6011435554        0.8439571999       -1.7631654329
 N         -2.9847969382       -0.0910729533       -1.1304465913
 S         -3.8429010013       -1.4026231172       -0.5360524836
 O         -3.1525316563       -2.0712118384        0.5419399701
 O         -4.1495880893       -2.2053776543       -1.7003671851
 C         -5.3512108743       -0.6690177671        0.0671034968
 C         -5.7889991282       -0.9467714105        1.3471257107
 C         -6.9697279521       -0.3725792731        1.7921992761
 C         -7.6893780592        0.4638626382        0.9529758515
 C         -7.2384465969        0.7300657301       -0.3313318426
 C         -6.0595345992        0.1584315574       -0.7822263919
 H         -5.6772264809        0.3377609246       -1.7730808267
 H         -7.8009621041        1.3808610479       -0.9812648522
 H         -8.6069479653        0.9105848168        1.3020026381
 H         -7.3218136378       -0.5795469711        2.7900761661
 H         -5.1938760644       -1.5989721302        1.9668082093
 H         -2.5760924847       -0.3063260788       -2.0283797367
 H         -3.4649894404        0.5438026832        1.3862237640
 H         -1.9391907539        1.7934275125        2.8744684047
 H          0.2601537123        2.5449394302        2.0434934576
 H          1.5566180811        3.1725758617        0.1041230170
 C          1.3974439742        2.4662759572       -1.8842581705
 C          2.7227304297        2.6087364611       -2.5699806206
 C          1.8430740790        1.4355898679       -2.8755459492
 H          1.3477717557        1.4050659539       -3.8355577199
 H          2.1282903717        0.4641582053       -2.5041314906
 H          2.8376198235        3.3779076703       -3.3185948922
 H          3.6085463193        2.4426684938       -1.9738236640
 H          0.6114735573        3.1416809135       -2.2087588938
