  62
        -98.93908230
 C          1.9561248699        1.0730310302        0.1040481685
 C          2.1250099801       -0.1709336595        0.7649445690
 C          3.1674285801       -1.0582739797        0.2357383591
 C          3.8676946399       -0.6709573300       -0.8457589011
 C          4.9956746298       -1.4462150602       -1.4612307511
 C          6.3455318999       -1.0356892898       -0.8564544015
 C          6.3567471602       -1.0167314992        0.6721067685
 H          7.3665479002       -0.7444925990        0.9869182282
 H          5.6875360102       -0.2281192791        1.0238941683
 C          5.9582526204       -2.3472103690        1.3260090891
 H          6.6593390006       -2.5633549986        2.1349814891
 H          6.0426816704       -3.1566560993        0.6000605494
 C          4.5558714505       -2.3583546889        1.9373100294
 H          4.4372862406       -1.4941265986        2.5959117291
 H          4.4624378807       -3.2552560286        2.5555401498
 C          3.3910223304       -2.3674651694        0.9391081196
 H          3.5324140603       -3.1739585896        0.2168554299
 H          2.4744495405       -2.5648527892        1.5023561899
 H          6.5947035797       -0.0335172599       -1.2130327019
 H          7.1105412899       -1.7247124599       -1.2190257314
 H          5.0105988496       -1.2404734006       -2.5327902211
 H          4.8254890099       -2.5099721201       -1.3072851206
 O          3.6520333796        0.5077316497       -1.4789220316
 C          2.6980386097        1.4145220798       -1.0278740017
 O          2.6281481194        2.4468191195       -1.7176114921
 O          1.4354083904       -0.5162678792        1.7625083693
 C          0.9035444899        2.0024871303        0.6816016084
 C         -0.4418419002        1.7237899400        0.0621436387
 C         -0.6174968604        1.7300428294       -1.3183776112
 C         -1.8607474305        1.4719973891       -1.8665952609
 C         -2.9471601303        1.1897305393       -1.0561690606
 C         -2.7755545801        1.1551962399        0.3212688894
 C         -1.5283548700        1.4269381802        0.8707612691
 H         -1.3984179298        1.3921224406        1.9437075091
 N         -3.8626029399        0.8458180101        1.1514770298
 S         -4.9501541599       -0.3261712102        0.6654632604
 O         -5.8950310101        0.2445097894       -0.2620806896
 O         -5.5104476696       -0.8468617697        1.8922838707
 C         -3.9842278699       -1.5791953204       -0.1617716193
 C         -2.8855393098       -2.1066396301        0.4871767507
 C         -2.1287875898       -3.0734170203       -0.1545248590
 C         -2.4843503000       -3.4987815008       -1.4253967388
 C         -3.5948052502       -2.9652158211       -2.0607685888
 C         -4.3519495401       -1.9939261609       -1.4258579390
 H         -5.2178439803       -1.5463499912       -1.8864354290
 H         -3.8699694103       -3.2993358915       -3.0481919286
 H         -1.8906712700       -4.2502876709       -1.9215417286
 H         -1.2616353797       -3.4834346400        0.3382130510
 H         -2.6265066796       -1.7625553897        1.4756862305
 H         -3.6303340997        0.7582442905        2.1295803597
 H         -3.9236030704        1.0008493891       -1.4716690303
 H         -1.9872391307        1.4907270987       -2.9383885409
 H          0.2298418894        1.9445769692       -1.9523008515
 H          0.8375915802        1.7195282007        1.7444836485
 C          1.2927254198        3.4729700703        0.6333425077
 C          0.6062988896        4.4899141299       -0.2229792425
 C          0.3957663799        4.5000682905        1.2594804575
 H          0.8402482599        5.2910641408        1.8442650871
 H         -0.5623078301        4.1631078706        1.6268641778
 H          1.2180190594        5.2589387698       -0.6691683630
 H         -0.2094326805        4.1675262496       -0.8502647523
 H          2.3597643298        3.6123883905        0.7733885175
