  62
        -98.93428336
 C         -1.5419956479       -1.3706150987        0.2410495563
 C         -1.6572724365       -0.0210546064        0.6602967314
 C         -2.8233838626        0.7274316231        0.1710646849
 C         -3.7007935764        0.1067090224       -0.6382110209
 C         -4.9818061902        0.6969804099       -1.1554585115
 C         -6.0509779997        0.6884649602       -0.0443090760
 C         -6.4875587807        2.0778931110        0.4207564997
 H         -7.1502530728        2.5118200663       -0.3309771161
 H         -7.0685958296        1.9487876184        1.3364596169
 C         -5.3584567626        3.0788751700        0.6835912267
 H         -5.7939259397        3.9085777168        1.2444930477
 H         -5.0078688029        3.4934456944       -0.2626663097
 C         -4.1511043026        2.5392729137        1.4613863809
 H         -3.8174029759        3.3161765551        2.1524671960
 H         -4.4365005629        1.6787272354        2.0669694857
 C         -2.9384578614        2.1680021747        0.5875137039
 H         -2.9214726365        2.8078173647       -0.2995055447
 H         -2.0267150384        2.3670042178        1.1592692726
 H         -5.6577937549        0.1260046692        0.8052738685
 H         -6.9344821642        0.1516846636       -0.3931074697
 H         -4.8046261820        1.7104471063       -1.5083414062
 H         -5.3046992479        0.0847113709       -1.9975860966
 O         -3.5553244577       -1.1850152025       -1.0249145533
 C         -2.4730637714       -1.9575757866       -0.6165087037
 O         -2.4800892107       -3.1099790082       -1.0835046897
 H          2.1314465604       -1.1433190600        1.3258010019
 C          2.0225654577       -1.3795806031        0.2782032364
 C          0.8308866203       -1.9036646892       -0.1983382210
 C          0.7160998353       -2.1861028852       -1.5569411684
 C          1.7781217840       -1.9542843317       -2.4107072133
 C          2.9619970498       -1.4172529346       -1.9338685632
 C          3.0831734624       -1.1228671814       -0.5815092158
 N          4.2729684628       -0.5792739102       -0.0677238299
 S          4.2065563000        0.7748462833        0.9181384010
 O          5.5765350572        1.2347940145        0.9845762554
 O          3.5891823277        0.4378517986        2.1738792004
 C          3.2254170720        1.9479823162        0.0008370180
 C          3.8849293994        2.7802987998       -0.8843260178
 C          3.1478404011        3.6577174869       -1.6615172130
 C          1.7653867062        3.6809656979       -1.5502839818
 C          1.1201017845        2.8379670887       -0.6599436983
 C          1.8512659047        1.9611800002        0.1273087428
 H          1.3549981561        1.3065648338        0.8266017470
 H          0.0455061820        2.8452833213       -0.5647766475
 H          1.1877543959        4.3601108916       -2.1574770134
 H          3.6497887341        4.3173042692       -2.3509794948
 H          4.9610070828        2.7341630005       -0.9326024605
 H          5.0034705117       -0.4678344678       -0.7567571278
 H          3.7869518426       -1.2281180178       -2.6037771523
 H          1.6805608493       -2.1841512959       -3.4609475206
 H         -0.2131796450       -2.5903571541       -1.9301127642
 C         -0.3249314989       -2.1277674882        0.7430049363
 H         -0.0640821159       -1.6433659881        1.6981074858
 C         -0.5901910313       -3.5958506514        1.0412630201
 C          0.0325867901       -4.7247986683        0.2814572581
 C          0.4862788806       -4.4258339121        1.6766936179
 H          0.2173964954       -5.1062901430        2.4704209133
 H          1.4560110120       -3.9657113588        1.7992433919
 H         -0.5734771425       -5.6006087740        0.1070311200
 H          0.7014837173       -4.4907087761       -0.5313145558
 H         -1.6022360529       -3.7616953909        1.3955764253
 O         -0.8151882544        0.5327850444        1.4182004136
