  62
        -98.94850214
 C         -1.2503730102       -1.5140456800        0.5006461747
 C         -2.1549637700       -1.1604146000       -0.5293643821
 C         -3.1820238188       -0.1735294165       -0.1674682836
 C         -3.2123474141        0.3227458905        1.0824580479
 C         -4.1834470265        1.3566617719        1.5727212100
 C         -3.6204060019        2.7757259103        1.4173509448
 C         -3.0505449946        3.0732536365        0.0299217935
 H         -2.7362564860        4.1199120764        0.0289998925
 H         -2.1444949390        2.4809803735       -0.1236152206
 C         -4.0304824508        2.8348590855       -1.1274156989
 H         -5.0537061760        2.8230168235       -0.7490387683
 H         -3.9514345903        3.6718904031       -1.8245335057
 C         -3.7715359674        1.5606944192       -1.9339463442
 H         -2.7147048071        1.5160335076       -2.2116214701
 H         -4.3520581713        1.6205132411       -2.8587194658
 C         -4.1450541443        0.2433985079       -1.2421961418
 H         -5.1624652939        0.3074087799       -0.8508451995
 H         -4.1138374616       -0.5489878751       -1.9958868932
 H         -4.4160248191        3.4880333173        1.6457560530
 H         -2.8185111114        2.9148517251        2.1463392023
 H         -5.1152314553        1.2623042504        1.0183401196
 H         -4.3794488293        1.1689303927        2.6301150861
 O         -2.3289255839       -0.0431415723        2.0458216418
 C         -1.3071621839       -0.9371560806        1.7680901963
 O         -0.5254536857       -1.1378092413        2.7213452772
 O         -2.1079436986       -1.6414443340       -1.6918748946
 C         -0.1152113182       -2.4775868456        0.2119240900
 C          0.7899657036       -1.9230876148       -0.8637262396
 C          1.4826007088       -2.7253732640       -1.7627656037
 C          2.3191675857       -2.1547619980       -2.7066611392
 C          2.4991752245       -0.7842488768       -2.7667198731
 C          1.8127702176        0.0259447158       -1.8697516465
 C          0.9712638227       -0.5498577659       -0.9325714344
 H          0.4235413088        0.0923685520       -0.2615865901
 N          1.9476199732        1.4217320591       -1.8919050936
 S          1.8689374168        2.2938848147       -0.4684827174
 O          0.5168907855        2.3364289248        0.0279445998
 O          2.4575500852        3.5723606669       -0.8067250967
 C          2.9444224504        1.4212476536        0.6558653115
 C          2.4334245755        0.6741859650        1.6966975403
 C          3.3094843169       -0.0308592622        2.5080375361
 C          4.6731592660        0.0239659923        2.2688709028
 C          5.1731009843        0.7877713543        1.2243959984
 C          4.3027172821        1.4898779002        0.4081317334
 H          4.6518499700        2.1039786779       -0.4060294105
 H          6.2348655660        0.8346999950        1.0439611370
 H          5.3485088626       -0.5288594752        2.9025467700
 H          2.9083433640       -0.6212955765        3.3166225548
 H          1.3688377815        0.6408973265        1.8695227804
 H          2.6515517205        1.7781692250       -2.5206457731
 H          3.1515150808       -0.3436327854       -3.5047253213
 H          2.8444522378       -2.7884314832       -3.4048966257
 H          1.3604632003       -3.7957097921       -1.7292731619
 H          0.4724700487       -2.5420873553        1.1406591516
 C         -0.6551391741       -3.8546800663       -0.1186223870
 C          0.0990649430       -5.0845814013        0.2863774706
 C         -1.1676096138       -4.7150086787        0.9960490244
 H         -2.0521950819       -5.3096036076        0.8243947353
 H         -1.0972258813       -4.3181452347        1.9987160024
 H          0.0826148937       -5.9393545134       -0.3729745148
 H          1.0301025046       -4.9508953378        0.8162966866
 H         -1.2009042284       -3.8710192076       -1.0547507205
