  62
        -98.94352011
 C          1.5065336889        1.5045353009       -0.0089098306
 C          2.1348174801        0.6262950132        0.9068955062
 C          3.1095204624       -0.3108807329        0.3341065289
 C          3.3448296162       -0.2864979172       -0.9904572108
 C          4.2369833135       -1.2496724616       -1.7174480933
 C          3.4447918061       -2.4740880334       -2.1992686688
 C          2.5716372067       -3.1135512812       -1.1186178257
 H          1.7822565073       -2.4130849052       -0.8340077191
 H          2.0830532437       -3.9808167194       -1.5683013538
 C          3.3366184166       -3.5503877040        0.1387365247
 H          4.4023587803       -3.6183171635       -0.0825331166
 H          3.0014037266       -4.5501494389        0.4224555442
 C          3.1260120393       -2.6447186986        1.3532660069
 H          2.0566041499       -2.4959511685        1.5174690140
 H          3.5299219323       -3.1542843984        2.2318075105
 C          3.7887569379       -1.2641324661        1.2765309776
 H          3.7180790943       -0.8067748237        2.2675648880
 H          4.8448443647       -1.3721536651        1.0220638917
 H          4.1507672804       -3.2131602647       -2.5824003412
 H          2.7979462953       -2.1647179041       -3.0240157905
 H          4.6640966519       -0.7407753495       -2.5831494957
 H          5.0438101808       -1.5621807412       -1.0575321080
 O          2.7398017258        0.5870484365       -1.8363074727
 C          1.8014844484        1.5006449773       -1.3723451790
 O          1.3108054320        2.2255843271       -2.2582198892
 H         -0.4774231676        0.2151988423       -0.6593564329
 C         -1.2285018598        0.9944256605       -0.6134366601
 C         -0.9018904437        2.2271129407       -0.0658289296
 C         -1.8932389339        3.2022348475       -0.0134065946
 C         -3.1655969809        2.9489009788       -0.4949399191
 C         -3.4812512838        1.7200773864       -1.0472061796
 C         -2.4983622301        0.7443509007       -1.1130372592
 N         -2.8258404808       -0.5239583636       -1.6556908904
 S         -3.6314174242       -1.5293088513       -0.5826778051
 O         -3.8054087459       -2.7908049400       -1.2651372423
 O         -4.8295847349       -0.8597086184       -0.1482847530
 C         -2.4972001321       -1.7233073594        0.7792519402
 C         -2.4102064740       -0.7198153493        1.7243267869
 C         -1.4516557014       -0.8217865881        2.7199299158
 C         -0.6060518793       -1.9193497255        2.7571860385
 C         -0.7134021887       -2.9232390683        1.8064551293
 C         -1.6591878155       -2.8202202716        0.7991534790
 H         -1.7707934434       -3.5735861464        0.0354990149
 H         -0.0607061507       -3.7813197392        1.8425392462
 H          0.1453844122       -1.9841415306        3.5283119267
 H         -1.3559836238       -0.0407987834        3.4566830671
 H         -3.0906194227        0.1147196693        1.6690218250
 H         -2.0205778484       -1.0170233349       -2.0164797440
 H         -4.4689597487        1.4971395403       -1.4155953666
 H         -3.9207951029        3.7179566089       -0.4412288708
 H         -1.6647319643        4.1663671182        0.4113801015
 C          0.4691870544        2.4719864567        0.5189314247
 H          0.4097907206        2.2680916792        1.5995851823
 C          0.9271643834        3.9058826898        0.3239901585
 C          0.6704332369        4.9437101106        1.3745584065
 C          2.0582433356        4.4216457463        1.1613156479
 H          2.7918807615        5.0646118903        0.6988359911
 H          2.4707943352        3.7508497048        1.9009415346
 H          0.4495479450        5.9522050418        1.0585292769
 H          0.1530445222        4.6364381520        2.2710616205
 H          0.8975802783        4.2119726644       -0.7155956011
 O          1.8842905850        0.6215977297        2.1410060187
