  62
        -98.94791913
 C          0.9360139535        1.0694422187        0.6967302333
 C          1.4876184250        0.9287103313       -0.5994417536
 C          2.2161881778       -0.3227935435       -0.8511500513
 C          2.2775992932       -1.2563506665        0.1152936148
 C          3.0123101606       -2.5608018533        0.0030475966
 C          4.4594569868       -2.4317468478        0.4987087553
 C          5.2094021227       -1.2370314110       -0.0897428900
 H          4.7470398919       -0.3144978389        0.2682563743
 H          6.2263670221       -1.2636215498        0.3072664416
 C          5.2604299284       -1.2132606995       -1.6236935408
 H          6.2768919559       -0.9664040548       -1.9373813644
 H          5.0312510400       -2.2038234977       -2.0183887199
 C          4.3324990266       -0.1844605276       -2.2728247020
 H          4.4938988991        0.7950387772       -1.8156623796
 H          4.6020693161       -0.1010662949       -3.3290906573
 C          2.8331137871       -0.5030350478       -2.2086755576
 H          2.6509942426       -1.5132567689       -2.5828618266
 H          2.3105762100        0.1978035510       -2.8669223293
 H          4.4442616294       -2.3245099715        1.5855790973
 H          4.9907641281       -3.3533957695        0.2546006804
 H          2.4941164842       -3.3031985494        0.6128307602
 H          2.9982938592       -2.8886177031       -1.0350217969
 O          1.7048683884       -1.0999572246        1.3364292406
 C          1.0135497632        0.0587235505        1.6533701130
 O          0.5183515813        0.0657159644        2.7983524776
 O          1.3821382772        1.8039502352       -1.4983757506
 C          0.1327029173        2.3093360986        1.0468694173
 C         -1.0564958522        2.4080148757        0.1212963901
 C         -1.4763643661        3.5898215720       -0.4746384682
 C         -2.5665138011        3.5916093639       -1.3282451174
 C         -3.2479532622        2.4229377020       -1.6148183825
 C         -2.8422592855        1.2369634079       -1.0132049319
 C         -1.7714848008        1.2453240667       -0.1361949972
 H         -1.4625541714        0.3221586043        0.3324766856
 N         -3.5082552192        0.0259801871       -1.2574520134
 S         -2.6189827876       -1.3885448424       -1.3644103546
 O         -1.3215066537       -1.1712687317       -1.9604137636
 O         -3.4931702962       -2.3032479674       -2.0710500959
 C         -2.4456464175       -1.9470838524        0.3158983217
 C         -3.5353148639       -1.8896693260        1.1616775773
 C         -3.3932411131       -2.3443365075        2.4627605500
 C         -2.1746668396       -2.8480809777        2.8919108881
 C         -1.0928500334       -2.9065048757        2.0277347653
 C         -1.2291621641       -2.4545823127        0.7254623854
 H         -0.4089655373       -2.4638819515        0.0232960053
 H         -0.1405580161       -3.2834899525        2.3648212028
 H         -2.0623686418       -3.1928597258        3.9076204680
 H         -4.2304993352       -2.2998523037        3.1405967592
 H         -4.4643181460       -1.4865858321        0.7944637225
 H         -4.2353001532        0.0685701691       -1.9569173466
 H         -4.0825566091        2.4234387193       -2.2992876910
 H         -2.8803860871        4.5153211755       -1.7904355051
 H         -0.9447071700        4.5069668604       -0.2808195612
 H         -0.2434488509        2.1492880536        2.0683092599
 C          1.0128316510        3.5413500644        1.0370692810
 C          0.6998713148        4.7000466044        1.9343318997
 C          1.8768177917        3.8208371863        2.2288608883
 H          2.8696820465        4.2124347978        2.0659271518
 H          1.8093382095        3.1344791104        3.0605821432
 H          0.8876666905        5.6991890031        1.5710446207
 H         -0.1651540915        4.6173084536        2.5747226122
 H          1.4287672336        3.7467215723        0.0574252424
