  62
        -98.95113040
 C         -1.9897113884        0.9156795856       -0.1145527497
 C         -1.5247774847        1.8451789874        0.8477931687
 C         -0.4812512524        2.7750948486        0.3953883204
 C         -0.0636804367        2.7243580373       -0.8824374127
 C          1.0149454361        3.5855004648       -1.4716097142
 C          2.3919356495        2.9150260133       -1.3735665208
 C          2.7325536929        2.3906703497        0.0213122565
 H          3.7489598220        1.9913340092       -0.0195623801
 H          2.0779513906        1.5521935884        0.2699601130
 C          2.6393210524        3.4372744326        1.1400758571
 H          2.6676261638        4.4427869720        0.7173659264
 H          3.5111917001        3.3308035425        1.7888917362
 C          1.4039209620        3.2905367470        2.0312912600
 H          1.5586067505        3.8912939870        2.9320753905
 H          1.3088974254        2.2468460123        2.3451946916
 C          0.0749575631        3.7365991375        1.4062886139
 H          0.1875827063        4.7332735319        0.9731797221
 H         -0.6678774303        3.7923275413        2.2077183539
 H          3.1476935527        3.6394734965       -1.6827212104
 H          2.4216887517        2.0721411224       -2.0677549599
 H          1.0283667011        4.5429472075       -0.9544128498
 H          0.7794765279        3.7546075163       -2.5238284410
 O         -0.5660643763        1.8498004328       -1.7899849349
 C         -1.5058565562        0.8950091292       -1.4221670375
 O         -1.8198039578        0.1122270303       -2.3382570218
 O         -1.9655672693        1.8937283822        2.0282283911
 C         -2.9784269937       -0.1550974809        0.3173533093
 C         -2.2788815632       -1.4918774645        0.2512988738
 C         -2.7355183963       -2.5758809938       -0.4858536433
 C         -1.9944181153       -3.7444611922       -0.5382504454
 C         -0.7845424926       -3.8502821013        0.1228626423
 C         -0.3235159149       -2.7746247132        0.8749917693
 C         -1.0842057182       -1.6191696614        0.9512504897
 H         -0.7263108151       -0.7910333081        1.5460914235
 N          0.8988889581       -2.8492433349        1.5674969309
 S          2.0238392105       -1.6166067640        1.4635241669
 O          3.1896131320       -2.1365369855        2.1436635527
 O          1.4721335273       -0.3936297060        1.9845831741
 C          2.3822304903       -1.4444077434       -0.2741910056
 C          1.4590107892       -0.8129812752       -1.0823108265
 C          1.7111021961       -0.7073786506       -2.4404372444
 C          2.8839020918       -1.2285907483       -2.9650774476
 C          3.8043193173       -1.8587512249       -2.1405836095
 C          3.5515353110       -1.9746692362       -0.7831186786
 H          4.2385550311       -2.4543130566       -0.1048929593
 H          4.7156094437       -2.2614679395       -2.5525159157
 H          3.0789266720       -1.1413036257       -4.0223410590
 H          0.9787453319       -0.2231148868       -3.0684225980
 H          0.5554680986       -0.4126509458       -0.6499120761
 H          1.3625902187       -3.7431955357        1.4889858477
 H         -0.2001918525       -4.7558522426        0.0626139967
 H         -2.3576662203       -4.5799631843       -1.1169583106
 H         -3.6642987024       -2.5034177284       -1.0268768934
 H         -3.2004040906        0.0627888522        1.3725358789
 C         -4.2630370713       -0.0870889220       -0.4779885275
 C         -5.5305959711       -0.6360561122        0.1034849759
 C         -5.3460360325        0.8450868230       -0.0275621877
 H         -5.9156610184        1.3734738485       -0.7771819497
 H         -5.1652031033        1.4211709903        0.8684148207
 H         -6.2321466390       -1.1241646153       -0.5557829459
 H         -5.4807226997       -1.0668274974        1.0921750454
 H         -4.1024401318       -0.1856609083       -1.5451062111
