  62
        -98.94042643
 C         -2.0580157432       -1.0326503380        0.4854648458
 C         -2.7522768893       -0.0811457637        1.2765909550
 C         -4.1744434293        0.1052853501        0.9745266980
 C         -4.7477777229       -0.6252222956        0.0012667298
 C         -6.1935057731       -0.5726820417       -0.4121687570
 C         -6.5184719060        0.5531872464       -1.4033247965
 C         -6.5198627777        1.9623687731       -0.8094076941
 H         -6.9737721777        2.6223948820       -1.5513451368
 H         -7.1563708734        1.9819822140        0.0758259669
 C         -5.1267508340        2.5022805999       -0.4564048730
 H         -4.3645639394        1.9078999946       -0.9658573593
 H         -5.0291969376        3.5267081995       -0.8229840169
 C         -4.8155078610        2.5259483430        1.0402064499
 H         -5.4875186878        3.2247758578        1.5434877094
 H         -3.7926316270        2.8888106941        1.1709766391
 C         -4.9254015607        1.1597597024        1.7296767179
 H         -5.9722378493        0.8770505658        1.8395630534
 H         -4.4774286701        1.2400527374        2.7232394922
 H         -7.5124966696        0.3526302336       -1.8097319921
 H         -5.8059593748        0.5074494026       -2.2301583225
 H         -6.4144325585       -1.5282830070       -0.8925852072
 H         -6.8241484348       -0.4741180558        0.4719129215
 O         -4.0551178414       -1.5381188106       -0.7261311782
 C         -2.6936950420       -1.7496776125       -0.5293575222
 O         -2.2045070437       -2.5882108038       -1.3068598194
 O         -2.2043262252        0.5744749812        2.2037507734
 C         -0.5831318812       -1.2160112187        0.7939518517
 C          0.2562124889       -0.2804335628       -0.0374481632
 C          0.1246760516       -0.2316043603       -1.4218251737
 C          0.9110708882        0.6237709744       -2.1721378615
 C          1.8449208263        1.4427576441       -1.5610147183
 C          1.9852632093        1.3996696301       -0.1808128754
 C          1.1931777354        0.5414927228        0.5712473258
 H          1.2961734710        0.5243069419        1.6478581867
 N          2.9582282370        2.2112412118        0.4389005279
 S          4.5450314262        1.9139469103       -0.0206996859
 O          5.3640539534        2.4962533678        1.0172933165
 O          4.7529371935        2.4122382655       -1.3557029511
 C          4.6670404199        0.1352857550        0.0031067720
 C          4.4273867928       -0.5787307485       -1.1538236858
 C          4.4196213978       -1.9632312226       -1.0954953284
 C          4.6497210279       -2.6060924692        0.1106635475
 C          4.8966348033       -1.8745313205        1.2625242906
 C          4.8985324751       -0.4900536825        1.2124329002
 H          5.0876359928        0.1151669234        2.0847824159
 H          5.0778629405       -2.3782703909        2.1984576392
 H          4.6327425192       -3.6832348392        0.1538135198
 H          4.2273974856       -2.5355478625       -1.9886441752
 H          4.2564193088       -0.0428605942       -2.0727982861
 H          2.8902499222        2.2146274392        1.4470355112
 H          2.4723594736        2.1084769888       -2.1315191495
 H          0.7965136741        0.6530275072       -3.2452666579
 H         -0.5960794900       -0.8770859322       -1.9008632258
 H         -0.4818497438       -0.9010088150        1.8447307899
 C         -0.1139148160       -2.6621580170        0.7061689118
 C          0.8793385656       -3.1523697130       -0.3005754195
 C          1.2792496581       -3.0166811932        1.1356540422
 H          1.4284667583       -3.9099977311        1.7223338346
 H          1.9411401149       -2.2023081949        1.3906075330
 H          0.7252849227       -4.1389504206       -0.7093501502
 H          1.2831154234       -2.4459640016       -1.0084065908
 H         -0.8996226562       -3.3583451486        0.9798542843
