  62
        -98.94435931
 C         -0.7948795656       -1.4897358056        0.1754051850
 C         -1.0827356806       -0.3769369672       -0.6525519550
 C         -2.2309783956        0.4417720451       -0.2346195753
 C         -2.8246975501        0.2171278090        0.9498489234
 C         -3.9703164331        0.9986012403        1.5322780866
 C         -5.3495398475        0.5202412374        1.0580910225
 C         -5.6898693440        0.8639070357       -0.3925995273
 H         -6.7542364735        0.6621914420       -0.5287624955
 H         -5.5374611736        1.9307489019       -0.5582467344
 C         -4.8991550304        0.0612845682       -1.4354257060
 H         -4.4563501416       -0.8173910466       -0.9608381508
 H         -5.5805095873       -0.3031925392       -2.2076473779
 C         -3.7962913402        0.8501508754       -2.1424222333
 H         -3.2797645337        0.1748116955       -2.8296673159
 H         -4.2428096556        1.6526674441       -2.7339087672
 C         -2.7497598830        1.4625459728       -1.2008942713
 H         -3.1784789485        2.3106394318       -0.6689043069
 H         -1.9064523619        1.8094159133       -1.8023591817
 H         -5.4131544330       -0.5609714799        1.2006872067
 H         -6.0977928483        0.9849351533        1.7042413868
 H         -3.8525481001        2.0558223600        1.2957207551
 H         -3.9159675242        0.8711658632        2.6153254491
 O         -2.4209648810       -0.7740999118        1.7878260461
 C         -1.4568830151       -1.6842702838        1.3923388219
 O         -1.2678330238       -2.6112876683        2.2052275549
 O         -0.4444621444       -0.0650524241       -1.6921867466
 C          0.2506614479       -2.5443621285       -0.1574872236
 C          1.6018806063       -2.1305688103        0.3710824837
 C          2.2444979547       -2.8923367003        1.3400481276
 C          3.4668249490       -2.4944463471        1.8507699399
 C          4.0594999747       -1.3231815869        1.4167902859
 C          3.4217526438       -0.5524093081        0.4489544476
 C          2.2070705691       -0.9654625151       -0.0801234711
 H          1.7247544538       -0.3658975190       -0.8366894789
 N          3.9994068028        0.6473938951        0.0212985958
 S          3.1711684396        1.8505980713       -0.7675609629
 O          2.8745459130        1.4526424510       -2.1198065904
 O          4.0418116379        3.0029485759       -0.6404325198
 C          1.6660634319        2.2030643235        0.1291998020
 C          1.4700793939        1.7893003255        1.4307990596
 C          0.3064928543        2.1647419745        2.0845257788
 C         -0.6225434909        2.9669217127        1.4432882597
 C         -0.4026930429        3.3906248301        0.1424688552
 C          0.7455686678        2.9973221951       -0.5239675615
 H          0.9457759682        3.2858188305       -1.5435998257
 H         -1.1200274529        4.0230662296       -0.3551587137
 H         -1.5195094553        3.2644892468        1.9628718694
 H          0.1320550526        1.8287666209        3.0945082752
 H          2.2019498880        1.1727593511        1.9268730039
 H          4.7726914762        0.9937991808        0.5677447642
 H          5.0053584831       -0.9999350501        1.8234496769
 H          3.9571453815       -3.0942175416        2.6022142267
 H          1.7688648232       -3.7903360608        1.7051865430
 H         -0.0560441223       -3.4471572304        0.3891786631
 C          0.3261029481       -2.8846665892       -1.6321384163
 C          0.8535169856       -4.2264888032       -2.0387749324
 C         -0.6041610965       -3.9143595794       -2.1955533733
 H         -0.9987543412       -3.7625468567       -3.1890072565
 H         -1.3015762600       -4.3835157618       -1.5163970062
 H          1.4645614728       -4.2906672352       -2.9260349104
 H          1.1426500117       -4.9106759866       -1.2552470725
 H          0.5685476151       -2.0375642306       -2.2602645849
