  62
        -98.94967731
 C         -1.5033282196       -1.0460798010        0.0414869995
 C         -2.5326857199       -0.6324243323        0.9177123998
 C         -3.0654452305        0.7139014276        0.6865525409
 C         -2.5391522407        1.4825233087       -0.2847781584
 C         -2.9478018514        2.8929539288       -0.6139813872
 C         -4.1698912513        2.9950916990       -1.5371437972
 C         -5.5080399012        2.6425022878       -0.8863991677
 H         -5.6252825516        3.2171903370        0.0328595428
 H         -6.2930223113        2.9631996580       -1.5740969075
 C         -5.6920415505        1.1479382675       -0.5888498591
 H         -6.6842666504        0.8305816473       -0.9170340995
 H         -4.9638061902        0.5703610483       -1.1626444595
 C         -5.5632618505        0.7753652762        0.8880384206
 H         -5.6748150500       -0.3080073839        0.9795013697
 H         -6.3680379608        1.2461152954        1.4569262810
 C         -4.2230194608        1.1678651163        1.5240447511
 H         -4.1799763214        2.2458638962        1.6802856521
 H         -4.1442311507        0.6718869855        2.4949052907
 H         -4.2232413218        4.0268702093       -1.8921320563
 H         -4.0058434709        2.3523933499       -2.4050122478
 H         -3.1381604618        3.4413212279        0.3093093233
 H         -2.0927186616        3.3517694297       -1.1155693667
 O         -1.5326032804        1.0574003599       -1.0918324086
 C         -0.9928629998       -0.2097816699       -0.9505059997
 O         -0.0814309396       -0.4743427988       -1.7592294898
 H          0.4359022300       -0.5552394115        1.5975047302
 C          1.1072800704       -1.2801047008        1.1600710296
 C          0.5996016910       -2.3265117103        0.4006060287
 C          1.4930006815       -3.2441843594       -0.1392887020
 C          2.8556098614       -3.1001610689        0.0574133483
 C          3.3576389108       -2.0292391393        0.7738106993
 C          2.4717004503       -1.1111882902        1.3245665800
 N          2.9271704097        0.0198738794        2.0380626310
 S          2.6390381590        1.5028352899        1.3056252123
 O          3.2825044985        2.4765129194        2.1626641732
 O          1.2266314190        1.6790033094        1.0892031523
 C          3.5313205793        1.3918580616       -0.2354324877
 C          4.8215230591        1.8863196323       -0.2799077871
 C          5.5629028693        1.7279228437       -1.4389301372
 C          5.0079010597        1.0682413544       -2.5255677978
 C          3.7139971400        0.5754872237       -2.4626107884
 C          2.9622555197        0.7343711923       -1.3075046184
 H          1.9506209599        0.3629617018       -1.2435118388
 H          3.2744564303        0.0617790142       -3.3025424189
 H          5.5854921299        0.9378586854       -3.4271297579
 H          6.5682583491        2.1139043642       -1.4900801767
 H          5.2083656887        2.3930615317        0.5896159434
 H          3.9057582797       -0.0310542104        2.2895603811
 H          4.4214488407       -1.9000575789        0.9052549195
 H          3.5358659918       -3.8211949482       -0.3691333423
 H          1.1208480120       -4.0721508591       -0.7202928728
 C         -0.8942882289       -2.4246979609        0.2123240384
 H         -1.3343060088       -2.8272214519        1.1376978580
 C         -1.2921560583       -3.3196157001       -0.9447915824
 C         -1.4925293376       -4.7905990204       -0.7374731337
 C         -2.6741804481       -3.8983222407       -0.9659064131
 H         -3.1950460179       -3.9578530702       -1.9097781632
 H         -3.3162541783       -3.6711677118       -0.1272697330
 H         -1.2042477172       -5.4666211695       -1.5283358143
 H         -1.3404971076       -5.1813679912        0.2572790959
 H         -0.8751932484       -2.9848544590       -1.8883078721
 O         -2.9790164996       -1.3522555433        1.8532337491
