  62
        -98.93819988
 C         -2.0707677580       -1.0742278953        0.3058919553
 C         -2.1301041525       -0.1571160673       -0.7729004893
 C         -2.3307112856        1.2541593313       -0.4003078598
 C         -2.4068037819        1.5993679253        0.8962024086
 C         -2.6473572812        2.9912786714        1.4040936286
 C         -4.1469499693        3.2714153783        1.5774161679
 C         -4.9909653761        2.8923069121        0.3605588784
 H         -4.9578055777        1.8084208537        0.2292076529
 H         -6.0255977670        3.1586959806        0.5866444334
 C         -4.5612403730        3.5727309108       -0.9465230350
 H         -5.4523936937        3.9367918594       -1.4619577783
 H         -3.9367932538        4.4388996477       -0.7252131467
 C         -3.8240215201        2.6566420579       -1.9251809319
 H         -3.7550343536        3.1706614206       -2.8875322859
 H         -4.4043019524        1.7439876079       -2.0821361308
 C         -2.4002026255        2.2553998417       -1.5190628858
 H         -1.8186290379        3.1463327423       -1.2712825014
 H         -1.9270961862        1.7726442681       -2.3796866433
 H         -4.2762409184        4.3328622978        1.7962214203
 H         -4.5072186550        2.6997752248        2.4357180844
 H         -2.1503340263        3.0916212508        2.3705663408
 H         -2.2091520826        3.7042338343        0.7080628060
 O         -2.3254928881        0.6952763782        1.9059763797
 C         -2.1373990332       -0.6474574289        1.6347284398
 O         -2.0640184235       -1.3687796711        2.6517126353
 O         -2.0326192874       -0.4725667313       -1.9866670690
 C         -1.7862745872       -2.5598173213        0.1429252203
 C         -0.3160595658       -2.8046222418        0.3799666774
 C          0.1262409747       -3.8903511339        1.1266719045
 C          1.4761031653       -4.0728844560        1.3704852989
 C          2.4056328213       -3.1618859676        0.9023947389
 C          1.9721580000       -2.0719945522        0.1560890162
 C          0.6232698071       -1.9157307727       -0.1215504691
 H          0.3077975699       -1.0662730970       -0.7094044115
 N          2.8742932199       -1.1095845303       -0.3275331046
 S          2.3619789596        0.5044889090       -0.2634847713
 O          1.5980953061        0.7336565223        0.9424606362
 O          1.7210271983        0.8384221425       -1.5098293357
 C          3.9380201319        1.3359416876       -0.1641098923
 C          4.6248611108        1.6116773399       -1.3313857292
 C          5.8666326661        2.2218236109       -1.2495584297
 C          6.3985410336        2.5431388461       -0.0095485244
 C          5.6967236342        2.2620320731        1.1531902748
 C          4.4549448770        1.6507209951        1.0785478638
 H          3.8682131743        1.4210080343        1.9537893262
 H          6.1103171671        2.5160124900        2.1158087055
 H          7.3647200315        3.0184205308        0.0515312126
 H          6.4133335745        2.4446254166       -2.1515085043
 H          4.1659014578        1.3514728696       -2.2709380285
 H          3.8054235728       -1.2184755309        0.0518917303
 H          3.4559730333       -3.2870279380        1.1174602059
 H          1.8062298115       -4.9199959677        1.9522663946
 H         -0.5974455221       -4.5781722152        1.5387750903
 H         -2.3338834205       -3.0606843698        0.9589116515
 C         -2.2810040561       -3.1524974438       -1.1670275993
 C         -1.3696205968       -3.4813096473       -2.3068706320
 C         -1.9881803871       -4.5846102322       -1.5053668459
 H         -2.7705636206       -5.1753324977       -1.9569851249
 H         -1.3445218995       -5.1357971930       -0.8371565825
 H         -1.7301159779       -3.2898795753       -3.3057431333
 H         -0.3156471335       -3.2839389417       -2.1834856311
 H         -3.2652227900       -2.7812996732       -1.4315692807
