  62
        -98.94492606
 C          2.4580409099        1.2109085903       -0.0918100970
 C          3.3671084141        0.6001280186        0.8116554798
 C          4.0824288807       -0.5825110881        0.3189259709
 C          3.8508658170       -1.0134571834       -0.9341839173
 C          4.4542749973       -2.2446907012       -1.5437304870
 C          3.5581761759       -3.4700899643       -1.3149618080
 C          3.1047787132       -3.6435375198        0.1348933846
 H          2.4406614521       -2.8174268892        0.4017137333
 H          2.5077017169       -4.5570886967        0.1800832350
 C          4.2500137311       -3.7283819136        1.1539270233
 H          5.1824840443       -3.9698387726        0.6425744897
 H          4.0392550984       -4.5447718732        1.8477520662
 C          4.4454713937       -2.4668870297        1.9970317369
 H          3.4892560540       -2.1677562465        2.4337999337
 H          5.1209703036       -2.7105299272        2.8212189235
 C          5.0379406573       -1.2582852590        1.2615098531
 H          5.2992662117       -0.5074624154        2.0127315017
 H          5.9494381646       -1.5550621691        0.7391848724
 H          4.1015102874       -4.3602529959       -1.6374269560
 H          2.6671272222       -3.3701570622       -1.9398388471
 H          4.5625864360       -2.0805999362       -2.6171628893
 H          5.4377505251       -2.4144617884       -1.1099041135
 O          2.9914969033       -0.3921734492       -1.7795456865
 C          2.2586147042        0.7164876161       -1.3808109868
 O          1.4978912869        1.1525145020       -2.2685354370
 H         -0.4428019700        1.9911093481       -1.2557131357
 C         -0.6839163179        1.7385393734       -0.2344779770
 C          0.2704808492        1.9108017807        0.7579653387
 C         -0.0483959902        1.5356118510        2.0591312174
 C         -1.2891784989        1.0010392676        2.3557031039
 C         -2.2322838084        0.8174106267        1.3598413364
 C         -1.9182208506        1.1772414817        0.0563309791
 N         -2.8612615593        0.9529913012       -0.9695627413
 S         -3.3048596226       -0.6566882364       -1.1914133691
 O         -2.2536235375       -1.5597467938       -0.7794739323
 O         -3.7362258018       -0.7531572295       -2.5691920067
 C         -4.7226136553       -0.8473469538       -0.1298332313
 C         -4.7216099555       -1.8167768835        0.8537775606
 C         -5.8382032213       -1.9496690022        1.6647287257
 C         -6.9298179502       -1.1155215084        1.4780339294
 C         -6.9158075731       -0.1482074665        0.4839229190
 C         -5.8034181719       -0.0108993201       -0.3308757008
 H         -5.7515901283        0.7240926275       -1.1165640283
 H         -7.7666830792        0.4983879204        0.3421066845
 H         -7.7966470576       -1.2201171664        2.1112225699
 H         -5.8503285492       -2.7011462058        2.4377964289
 H         -3.8465076250       -2.4370162514        0.9652655454
 H         -2.5642318753        1.3379804836       -1.8562936811
 H         -3.1964855043        0.3888684790        1.5799500786
 H         -1.5222684794        0.7171045777        3.3706287630
 H          0.6979138973        1.6462735324        2.8328721042
 C          1.6607384857        2.3977119929        0.4289921809
 H          2.1507543655        2.6817525518        1.3697063906
 C          1.6752505394        3.5920201873       -0.5012574990
 C          1.2669424871        4.9310855767        0.0336819609
 C          2.7033001714        4.6628317543       -0.2978994567
 H          3.1308461242        5.1363610132       -1.1689388388
 H          3.4013089415        4.5375570747        0.5168548912
 H          0.9896506079        4.9869940231        1.0753920542
 H          0.7056085282        5.5927731015       -0.6078854008
 H          1.4105513209        3.3531968663       -1.5230614286
 O          3.5703719524        1.0287657760        1.9784208500
