  62
        -98.94464811
 C          1.8714534102        1.4491351439       -0.0631249704
 C          2.7304438638        0.7770047196        0.8485101696
 C          3.5736882090       -0.2848232374        0.2908940203
 C          3.5268283692       -0.5467847762       -1.0275816992
 C          4.3559571058       -1.5660333620       -1.7609836363
 C          3.7824923885       -2.9890630118       -1.7196896950
 C          3.8934709527       -3.6935981038       -0.3669975771
 H          3.6510277163       -4.7452591674       -0.5323348822
 H          4.9263678559       -3.6489766573       -0.0204653897
 C          2.9593664748       -3.1332284123        0.7147195151
 H          2.1850990551       -2.5231341459        0.2439512726
 H          2.4579340517       -3.9580342725        1.2255398955
 C          3.6565775007       -2.2931269631        1.7844932052
 H          4.3527035563       -2.9186861140        2.3472580165
 H          2.8971070611       -1.9237367604        2.4780943694
 C          4.4228046786       -1.0830586516        1.2335317926
 H          4.6900196560       -0.4343264032        2.0710791043
 H          5.3372790309       -1.4095517678        0.7384799694
 H          2.7353397151       -2.9529817833       -2.0294890990
 H          4.3261493308       -3.5806766347       -2.4598917444
 H          4.3971371121       -1.2414499739       -2.8030961080
 H          5.3695178573       -1.5696460562       -1.3587998911
 O          2.7055449184        0.1280463589       -1.8722647920
 C          1.8443599259        1.1175214358       -1.4175449446
 O          1.1337875622        1.5996771597       -2.3241097464
 O          2.7959755960        1.0630099996        2.0727471130
 C          1.0018168930        2.5529447363        0.5170401636
 C         -0.4149549770        2.0851042954        0.7515266274
 C         -0.9408330414        2.0181423263        2.0365395031
 C         -2.2421045061        1.5946389489        2.2456725005
 C         -3.0410610177        1.2200418042        1.1805636667
 C         -2.5169366530        1.2649035706       -0.1053820296
 C         -1.2169078149        1.7017646336       -0.3141760069
 H         -0.8149862668        1.7296544010       -1.3160020186
 N         -3.3054533773        0.8533528800       -1.1935214743
 S         -4.1913300793       -0.5539607809       -1.0188217842
 O         -4.3046609261       -1.1063352910       -2.3503459632
 O         -5.4377372887       -0.2570116978       -0.3568127602
 C         -3.2082745798       -1.6233955150        0.0195542166
 C         -3.7352537790       -2.1023539924        1.2017085724
 C         -2.9550056214       -2.9214015290        2.0019766965
 C         -1.6661933957       -3.2449329554        1.6082329505
 C         -1.1528124427       -2.7600484063        0.4150408998
 C         -1.9278888310       -1.9405651882       -0.3889546515
 H         -1.5520156969       -1.5484895850       -1.3214206349
 H         -0.1498343021       -3.0142021468        0.1105228420
 H         -1.0554266891       -3.8782619042        2.2319134329
 H         -3.3523863257       -3.3015359113        2.9291429436
 H         -4.7411357449       -1.8231037930        1.4701305973
 H         -2.8163584880        0.8753059191       -2.0765215319
 H         -4.0594075361        0.8963564822        1.3228714741
 H         -2.6390878086        1.5547766303        3.2482918433
 H         -0.3180596318        2.2920815437        2.8753638445
 H          1.4448287853        2.7744504543        1.4972182489
 C          1.0172713870        3.8232391364       -0.3113442265
 C          0.6549620197        5.1211346785        0.3432391865
 C          2.0746773724        4.8526814646       -0.0550061836
 H          2.4872146462        5.3875796474       -0.8973255827
 H          2.7934374484        4.6475360986        0.7250075032
 H          0.0887553747        5.8434163945       -0.2244949077
 H          0.4113164877        5.0999713369        1.3945976780
 H          0.7097021037        3.6740584719       -1.3381997607
