  62
        -98.93505563
 C          2.0652877475        1.1931940648        0.3128522597
 C          2.7648287404        0.4172684714        1.2728017682
 C          4.0905580490       -0.0675892976        0.8790485547
 C          4.5696910946        0.2268638885       -0.3429563035
 C          5.9133139685       -0.1743732111       -0.8883336059
 C          5.9478342513       -1.5880583628       -1.4849158372
 C          5.8965202011       -2.7263272338       -0.4649540981
 H          6.1474522527       -3.6456178507       -0.9979517208
 H          6.6652840116       -2.5693625454        0.2923692201
 C          4.5316559627       -2.9077656161        0.2139945657
 H          3.7637499546       -2.3905160747       -0.3663835525
 H          4.2659349858       -3.9674198456        0.2203300081
 C          4.4729015095       -2.4174942663        1.6608728545
 H          5.1416732532       -3.0202189045        2.2794336204
 H          3.4537932053       -2.5605446439        2.0294637319
 C          4.8393556428       -0.9386798470        1.8421394607
 H          4.5567068370       -0.6372200070        2.8537963946
 H          5.9138253978       -0.8005465135        1.7234813414
 H          6.8768784047       -1.6796482973       -2.0522940063
 H          5.1177982349       -1.6911957800       -2.1878023034
 H          6.6670289124       -0.0902418003       -0.1048901958
 H          6.1526988968        0.5388102829       -1.6799893543
 O          3.8667271002        0.9618084510       -1.2411582252
 C          2.5954214156        1.4491655901       -0.9534084241
 O          2.0807013153        2.0740615870       -1.8953901287
 O          2.3009062575        0.1449967181        2.4138751803
 C          0.6834823886        1.6976752430        0.7118107212
 C         -0.3579127413        1.0875739697       -0.1924333606
 C         -0.8075846472        1.6254390597       -1.3926800456
 C         -1.7393523640        0.9496210747       -2.1630967197
 C         -2.2445452212       -0.2739027807       -1.7658437583
 C         -1.7980760523       -0.8284990575       -0.5733144905
 C         -0.8728802688       -0.1451263705        0.2007387691
 H         -0.5247360519       -0.5887177832        1.1250389405
 N         -2.3078321939       -2.0701137184       -0.1528320668
 S         -3.9713859215       -2.2629843078       -0.1920372337
 O         -4.2644604686       -3.2495431050        0.8236866436
 O         -4.3892193868       -2.5950390631       -1.5311588345
 C         -4.6226409363       -0.6671654107        0.2691098046
 C         -4.3214482189       -0.1838020280        1.5272606358
 C         -4.7681364639        1.0773230958        1.8857109829
 C         -5.5039462556        1.8306606664        0.9835170659
 C         -5.8038845710        1.3286413730       -0.2730775674
 C         -5.3575440280        0.0683531299       -0.6378398455
 H         -5.5646325295       -0.3580779280       -1.6057192718
 H         -6.3781189567        1.9158738605       -0.9713678996
 H         -5.8451825377        2.8147790756        1.2634304810
 H         -4.5361512055        1.4694652248        2.8628709425
 H         -3.7518551874       -0.7972319416        2.2070750573
 H         -1.9249970100       -2.3923788457        0.7238472766
 H         -2.9623143518       -0.8132832082       -2.3623407215
 H         -2.0712098154        1.3842648228       -3.0937061609
 H         -0.4070615681        2.5546204501       -1.7549891730
 H          0.5280824999        1.2447127542        1.7036272476
 C          0.6660336147        3.1993402879        0.9676248535
 C          0.7727618567        4.2780484239       -0.0665604355
 C         -0.5128156624        4.0790374430        0.6778863183
 H         -0.7922452334        4.8154004628        1.4165356343
 H         -1.3472469775        3.6443612779        0.1505647124
 H          1.3776868596        5.1393076099        0.1811701868
 H          0.8482263991        3.9951653990       -1.1027857688
 H          1.1960408845        3.4105880920        1.8936179124
