  62
        -98.94701610
 C         -2.3009278102       -0.4465015588       -0.4665687804
 C         -1.4409662694        0.4491377005       -1.1458311803
 C         -1.6625039986        1.8802125907       -0.8906933108
 C         -2.6213388086        2.2616516115       -0.0295678512
 C         -2.9191070979        3.6805375618        0.3581870783
 C         -2.1231769180        4.1046972617        1.5997350584
 C         -0.6276398882        3.7964535207        1.5180894290
 H         -0.1655752482        4.1887526107        2.4273573990
 H         -0.4740899288        2.7141492307        1.5300297193
 C          0.0792507826        4.3877534800        0.2905508790
 H         -0.5245431268        5.1887948902       -0.1388450014
 H          1.0249820527        4.8284157995        0.6133455792
 C          0.4137294022        3.3577824895       -0.7897682106
 H          0.8995001616        2.4993150593       -0.3191807002
 H          1.1302112027        3.8069034688       -1.4831879305
 C         -0.7768526878        2.8541222300       -1.6164236708
 H         -1.3579330872        3.7039876602       -1.9811954712
 H         -0.3793025079        2.3139403995       -2.4804955506
 H         -2.2659356174        5.1769876218        1.7490805181
 H         -2.5314505186        3.5831742122        2.4687219885
 H         -2.6831773973        4.3363858814       -0.4777601818
 H         -3.9853025879        3.7578484625        0.5793553480
 O         -3.4216651894        1.3765731022        0.6180933188
 C         -3.2731438601        0.0149836221        0.4261414092
 O         -4.0694061008       -0.6817620273        1.0893832492
 H          0.3720551593       -1.2180298104       -0.2764668094
 C          0.0870044886       -1.9700941500        0.4380971608
 C         -1.1993049017       -2.4896673892        0.4107859805
 C         -1.5431018925       -3.4737691487        1.3292250407
 C         -0.6230167731       -3.9106283890        2.2659640711
 C          0.6390440073       -3.3487947398        2.3257488913
 C          0.9926850981       -2.3618736403        1.4111205511
 N          2.2574646885       -1.7569280310        1.4604058413
 S          2.4348912495       -0.0882317012        1.2988677909
 O          3.3255845395        0.2951644686        2.3777168211
 O          1.1577948500        0.5785579796        1.2646805104
 C          3.3249702001        0.0789886979       -0.2358094389
 C          4.7041489200       -0.0010659930       -0.1755285984
 C          5.4389057504        0.0996610863       -1.3446542982
 C          4.7853079709        0.2778582263       -2.5548869985
 C          3.4027017409        0.3564685872       -2.5990353089
 C          2.6598179105        0.2547343579       -1.4317620291
 H          1.5823310106        0.3136212686       -1.4565335794
 H          2.8877644213        0.4945469172       -3.5364464891
 H          5.3550112712        0.3575710757       -3.4673751183
 H          6.5148107404        0.0400357856       -1.3093540379
 H          5.1703086497       -0.1248339230        0.7879892417
 H          2.8401098981       -2.0914822212        2.2146055416
 H          1.3456992169       -3.6639283000        3.0790400716
 H         -0.8992723637       -4.6780719787        2.9732956912
 H         -2.5435658128       -3.8808616481        1.3203307605
 C         -2.2091605510       -1.9616781189       -0.5814129499
 H         -3.1962268814       -2.3430248782       -0.2844486001
 C         -1.9063309009       -2.4608158794       -1.9801924197
 C         -2.3308265517       -3.8450969593       -2.3643465494
 C         -3.0319823708       -2.6562334190       -2.9486824400
 H         -2.8650175703       -2.4127508994       -3.9869715600
 H         -4.0314633407       -2.4327042983       -2.6039822603
 H         -1.6804434018       -4.4232293899       -3.0023785291
 H         -2.8585882322       -4.4312895688       -1.6272929794
 H         -0.9693889306       -2.0924455301       -2.3750128595
 O         -0.5282789594        0.0993321797       -1.9416942000
