  62
        -98.94436470
 C          0.8318970207        1.2008635793        0.2395485041
 C          1.5531439500        0.4518299569        1.2031040814
 C          2.4315536912       -0.5984508760        0.6763694704
 C          2.4416060212       -0.8572088623       -0.6432878501
 C          3.2989825998       -1.8782924482       -1.3402029877
 C          4.7177124386       -1.3827253117       -1.6556019113
 C          5.6510992762       -1.2616697711       -0.4501176773
 H          5.6446700898       -2.1971722621        0.1100151363
 H          6.6613957929       -1.1233471836       -0.8402927547
 C          5.3243856263       -0.0940457109        0.4915414885
 H          4.6755714719        0.6185542281       -0.0234253673
 H          6.2438362302        0.4384843836        0.7451542396
 C          4.6624421946       -0.5056725721        1.8069047809
 H          5.3573255240       -1.1106425226        2.3936211435
 H          4.4409288160        0.3998902943        2.3780238973
 C          3.3544507595       -1.2892646957        1.6343025332
 H          3.5683015535       -2.3032042473        1.2968634046
 H          2.8532099904       -1.3380733474        2.6043649369
 H          4.6469544540       -0.4159047832       -2.1592509962
 H          5.1609446164       -2.0913268230       -2.3589788025
 H          3.3575945469       -2.7857802348       -0.7393076478
 H          2.8008996016       -2.1089489225       -2.2836647675
 O          1.6364392313       -0.2028961779       -1.5190721978
 C          0.8343000591        0.8564300202       -1.1131009754
 O          0.1883944636        1.3788515261       -2.0396871727
 H         -1.6827721954        0.3265960153        0.7849993562
 C         -2.1127661749        1.1530708900        0.2385405151
 C         -1.3805956734        2.3266579841        0.1052484672
 C         -1.9465156148        3.3888581121       -0.5861733778
 C         -3.2127895689        3.2686836967       -1.1324085504
 C         -3.9346238481        2.0975049448       -1.0045275528
 C         -3.3737927397        1.0247908239       -0.3176297642
 N         -4.0609161172       -0.1859085005       -0.2118530677
 S         -3.6142982731       -1.4356616635        0.7792593963
 O         -4.6947584590       -2.3893957109        0.6423642613
 O         -3.3421829195       -0.9880005551        2.1253631209
 C         -2.1471134740       -2.1202718074        0.0391882232
 C         -2.1649805415       -2.4080466742       -1.3106505744
 C         -1.0524034622       -3.0017712240       -1.8833531923
 C          0.0500295983       -3.3039926012       -1.0994740748
 C          0.0561491280       -3.0021287084        0.2530018435
 C         -1.0518096143       -2.4028825247        0.8296877328
 H         -1.0808835482       -2.1443517896        1.8772151332
 H          0.9161198705       -3.2269313149        0.8633067844
 H          0.9098585685       -3.7786164625       -1.5444783391
 H         -1.0479811719       -3.2287782477       -2.9373259254
 H         -3.0423308848       -2.1685577813       -1.8883259506
 H         -5.0077500875       -0.2185094776       -0.5522995593
 H         -4.9177522685        2.0039191322       -1.4393573028
 H         -3.6419374281        4.0998553555       -1.6713288500
 H         -1.3919973420        4.3031619335       -0.7177462077
 C         -0.0110655817        2.3612112787        0.7348155651
 H         -0.1372038620        2.1671385068        1.8142216139
 C          0.6764687357        3.7140949804        0.6152856440
 C          2.1710353735        3.8244104479        0.5902441946
 C          1.3760611303        4.1423142785       -0.6386709605
 H          1.2972588029        5.1756683845       -0.9432929453
 H          1.3938597570        3.4443184457       -1.4609143003
 H          2.6338073720        4.6362944574        1.1312094648
 H          2.7423327564        2.9075513311        0.6087842560
 H          0.1513729435        4.4864962405        1.1689744718
 O          1.4746363249        0.6583527390        2.4440513515
