  62
        -98.93977162
 C         -1.4848900852       -1.5339505047       -0.0512182159
 C         -1.5116127194       -0.1407046901        0.1847170478
 C         -2.8288698894        0.4548117317        0.4898737036
 C         -3.9066637676       -0.3495145675        0.5454774021
 C         -5.3409572781        0.0328094555        0.7989815743
 C         -6.0051298561        0.6883469835       -0.4225506085
 C         -5.1515944174        1.7342909942       -1.1348860563
 H         -5.6876488346        2.0398092515       -2.0374517499
 H         -4.2152213530        1.2737813227       -1.4546312082
 C         -4.8495392644        2.9913303781       -0.3225468220
 H         -5.7903445344        3.4644736598       -0.0323543234
 H         -4.3204952806        3.6835324751       -0.9824224825
 C         -3.9988007771        2.7875053846        0.9330746133
 H         -4.5926577325        2.3803328647        1.7469521639
 H         -3.6608802671        3.7748832291        1.2606929838
 C         -2.7454326568        1.9441863770        0.7216964381
 H         -2.0887200540        2.0669756027        1.5911038413
 H         -2.1782537521        2.3467170469       -0.1247875331
 H         -6.9464891126        1.1385881673       -0.1027137597
 H         -6.2365407078       -0.0994114674       -1.1437989591
 H         -5.8757910600       -0.8909827457        1.0307073022
 H         -5.4066700328        0.6795146819        1.6689577924
 O         -3.8262584697       -1.6949549553        0.3278502289
 C         -2.6317227688       -2.3201839826        0.0272418698
 O         -2.7164995814       -3.5549829493       -0.1364739710
 H          2.3824895588       -1.1608498640       -0.6628853268
 C          2.0926655753       -1.3311999012        0.3594099965
 C          0.8556138396       -1.8746332174        0.6639404229
 C          0.5422133333       -2.1127873116        2.0002724455
 C          1.4362023823       -1.7933432548        3.0029774741
 C          2.6570949050       -1.2166725258        2.6973489649
 C          2.9839712371       -0.9871365800        1.3670216187
 N          4.2170155067       -0.4182884269        1.0229070005
 S          4.3725076407        0.5462300309       -0.3301898584
 O          4.4084515658       -0.2700532706       -1.5186100856
 O          5.5699572347        1.3191616798       -0.0706617017
 C          2.9604094778        1.6342472612       -0.3690015279
 C          2.6739533347        2.3869024460        0.7513835677
 C          1.6017465388        3.2615478236        0.7132016686
 C          0.8416256078        3.3729765004       -0.4394751477
 C          1.1435839825        2.6127106357       -1.5565265896
 C          2.2119211066        1.7326670934       -1.5225952252
 H          2.4754299614        1.1158643307       -2.3678223441
 H          0.5443312092        2.6933628831       -2.4500027066
 H          0.0039692045        4.0524084841       -0.4647574848
 H          1.3570566084        3.8490962327        1.5837247560
 H          3.2858691509        2.2840785608        1.6331793580
 H          4.7686319485       -0.0801881930        1.7969442320
 H          3.3507071971       -0.9508583264        3.4803190887
 H          1.1774063189       -1.9826211508        4.0340233586
 H         -0.4202238137       -2.5449323671        2.2404720101
 C         -0.1680350840       -2.2063709249       -0.3933991686
 H         -0.3573092098       -3.2894085497       -0.3708148801
 C          0.2632606529       -1.8115436904       -1.7904245846
 C          1.1577145832       -2.7109818351       -2.5876448935
 C         -0.2840387112       -2.5582409226       -2.9677097756
 H         -0.5270469677       -2.0052048181       -3.8626521059
 H         -0.9574448907       -3.3786400475       -2.7655176032
 H          1.4661037068       -3.6396354835       -2.1313625792
 H          1.9123221494       -2.2635146823       -3.2175316726
 H          0.3933544184       -0.7398862083       -1.8948426452
 O         -0.4857522985        0.5848111851        0.1407755594
