  62
        -98.93945819
 C         -2.1180755298       -1.2963687610        0.2147295999
 C         -1.7851451504       -0.3061976411       -0.7378139803
 C         -2.5782390512        0.9412033684       -0.7029415507
 C         -3.5807866913        1.0490923180        0.1886908092
 C         -4.4993530721        2.2195397875        0.4205918988
 C         -3.8234036028        3.3578448582        1.2023526185
 C         -2.4029409430        3.6903720089        0.7522091286
 H         -1.7840975624        2.7939675694        0.8292787588
 H         -1.9942126535        4.4240068194        1.4524959184
 C         -2.2846767433        4.2711272486       -0.6550743716
 H         -1.2354772534        4.5380503093       -0.8077418116
 H         -2.8713195939        5.1907333882       -0.7112117119
 C         -2.7140023226        3.3492463981       -1.7985964414
 H         -2.3541474628        3.7988060480       -2.7285688515
 H         -3.7966010326        3.3016038273       -1.8779823614
 C         -2.1249656517        1.9434241884       -1.7376195809
 H         -1.0374056918        2.0206946192       -1.6238333509
 H         -2.2818182713        1.4567194881       -2.7074828608
 H         -3.7789449727        3.0654071285        2.2545605886
 H         -4.4491050834        4.2486528277        1.1273676683
 H         -5.3402063719        1.8461622771        1.0093607588
 H         -4.8922056022        2.5788090370       -0.5258316413
 O         -3.8768617507        0.0562264881        1.0767480494
 C         -3.1563907600       -1.1220215014        1.1269981498
 O         -3.5267265495       -1.9197896214        2.0131660800
 O         -0.8584809502       -0.4394961007       -1.5771179902
 C         -1.3403792890       -2.5975047205        0.2602706003
 C          0.1421140709       -2.3475203695        0.4051941504
 C          1.0984451214       -3.1674956591       -0.1821731593
 C          2.4479368013       -2.9097870582       -0.0131461293
 C          2.8758305805       -1.8242708977        0.7283952404
 C          1.9280433199       -0.9930686781        1.3117920702
 C          0.5774837001       -1.2696342790        1.1644212501
 H         -0.1535881103       -0.6217405594        1.6330656999
 N          2.3487650892        0.1374883123        2.0320824299
 S          3.5718278386        1.0692437629        1.3666767297
 O          4.8497625989        0.5340724139        1.7688842400
 O          3.2964376077        2.4206132929        1.8049174793
 C          3.4048951488        0.9346066823       -0.4053469303
 C          2.1758933087        1.1845919814       -0.9819130704
 C          2.0393041689        1.0548124709       -2.3538246504
 C          3.1329023792        0.6909261714       -3.1241542002
 C          4.3647036093        0.4570553524       -2.5329998401
 C          4.5034184691        0.5741285828       -1.1595371901
 H          5.4374825192        0.3859973236       -0.6552946000
 H          5.2133375695        0.1752932828       -3.1353006499
 H          3.0199836793        0.5861577611       -4.1916462902
 H          1.0729828688        1.2094836902       -2.8058051705
 H          1.3355454985        1.4588407610       -0.3634805506
 H          1.5921475888        0.7173598919        2.3634797797
 H          3.9225820804       -1.6061100070        0.8665983405
 H          3.1774322517       -3.5591606978       -0.4719470191
 H          0.7854530820       -4.0107287394       -0.7755130291
 H         -1.6868989287       -3.1271382005        1.1606171505
 C         -1.6785604283       -3.4372205111       -0.9566876895
 C         -1.7430562174       -4.9311082811       -0.8599298291
 C         -3.0038903179       -4.1344797619       -1.0036741394
 H         -3.5364152878       -4.1705388425       -1.9422114894
 H         -3.6471334580       -4.0303798821       -0.1415199194
 H         -1.4120881770       -5.5176215311       -1.7038135489
 H         -1.5387650872       -5.3816387507        0.0997401911
 H         -1.3116106386       -2.9970673211       -1.8767739895
