  62
        -98.94649593
 C         -1.4211386900       -1.5650971297       -0.4268911064
 C         -1.2726007078       -0.2438227957       -0.9182968107
 C         -2.4745930650        0.6001420884       -0.8516802935
 C         -3.6349632704        0.0940051834       -0.3989130041
 C         -4.9606406859        0.8055225657       -0.3533181592
 C         -5.1767559383        1.6716581723        0.8942193977
 C         -4.3453550023        2.9536910240        0.9412987236
 H         -4.4823687321        3.5104556511        0.0137868733
 H         -4.7430027934        3.5672178390        1.7521483624
 C         -2.8489060464        2.7187698716        1.1880301523
 H         -2.6940948491        1.7104020426        1.5796204033
 H         -2.4875118632        3.4088319418        1.9542079808
 C         -1.9548000933        2.9064543639       -0.0377440334
 H         -0.9356337456        2.6507630110        0.2647963949
 H         -1.9686989112        3.9558043559       -0.3435003518
 C         -2.3367862035        2.0394277832       -1.2450108224
 H         -3.2609365835        2.4057902318       -1.6927962803
 H         -1.5351706071        2.1059249673       -1.9846383263
 H         -4.9649940577        1.0690936417        1.7805517587
 H         -6.2339255573        1.9458405568        0.9223777863
 H         -5.7278306113        0.0281586768       -0.3682072708
 H         -5.0722052773        1.4212023359       -1.2464345198
 O         -3.7436815939       -1.1862725510        0.0455049794
 C         -2.6423978223       -2.0244128535        0.0759093316
 O         -2.8800773663       -3.1548235858        0.5497184868
 O         -0.2148640283        0.2246206626       -1.4145190575
 C         -0.2863912244       -2.5785847834       -0.3964897019
 C          0.6379996216       -2.3199307843        0.7688734538
 C          0.7500167941       -3.2367244526        1.8079403790
 C          1.6033112344       -2.9935489401        2.8696969234
 C          2.3541079329       -1.8326867574        2.9176508250
 C          2.2455214206       -0.9079419721        1.8847998715
 C          1.3984144375       -1.1603552106        0.8163618501
 H          1.3024777937       -0.4315227918        0.0291862006
 N          3.0119797406        0.2654768134        1.8824100103
 S          2.3842113950        1.6811076530        1.2431815970
 O          3.2351288595        2.7207047160        1.7910177732
 O          0.9776729660        1.8196350913        1.5402719043
 C          2.6816347147        1.5867013474       -0.5089630581
 C          3.6755585544        0.7608296947       -0.9937186900
 C          3.9148184236        0.7338665499       -2.3581168182
 C          3.1668097830        1.5330785650       -3.2084558320
 C          2.1793502253        2.3634600632       -2.7036697634
 C          1.9333366495        2.3934159481       -1.3407816007
 H          1.1633847498        3.0149414341       -0.9127404509
 H          1.5936850587        2.9814833521       -3.3654731462
 H          3.3504922465        1.5054262842       -4.2712189964
 H          4.6797868956        0.0848301058       -2.7536879772
 H          4.2319043413        0.1423664752       -0.3089194815
 H          3.5508451207        0.4357837820        2.7186388752
 H          3.0165603379       -1.6399672070        3.7479312676
 H          1.6806994542       -3.7121524904        3.6716575351
 H          0.1510657676       -4.1357052020        1.7854956558
 H         -0.7664296075       -3.5530086922       -0.2330007881
 C          0.4907597974       -2.6381855430       -1.6982218130
 C          1.2888538357       -3.8668930895       -2.0100066949
 C          0.0380720294       -3.5692810249       -2.7803860859
 H          0.1254562483       -3.2460425835       -3.8066791685
 H         -0.8371780610       -4.1727895855       -2.5867710238
 H          2.2388404763       -3.7501282980       -2.5078974373
 H          1.2618956965       -4.6756428736       -1.2953431674
 H          0.8949568186       -1.6819201041       -2.0021910116
