  62
        -98.94643025
 C          1.5621510854        1.0925336122        0.0359193508
 C          2.6190102038        0.8141917077        0.9397243036
 C          3.3380117415       -0.4481249142        0.7260297057
 C          2.9373377107       -1.2733435725       -0.2580440895
 C          3.6000630442       -2.5728314194       -0.6101839375
 C          4.6838883940       -2.3709298021       -1.6786058233
 C          5.6549729034       -1.2321742969       -1.3669708227
 H          6.3912925368       -1.2029961095       -2.1731407945
 H          5.1134868309       -0.2837287239       -1.3930247858
 C          6.3778494522       -1.3650091704       -0.0192481537
 H          6.3163717242       -2.3947895127        0.3346125032
 H          7.4355167807       -1.1358630371       -0.1656472155
 C          5.8651544482       -0.4226482762        1.0715287302
 H          5.8391642539        0.6007616715        0.6885939243
 H          6.5777976653       -0.4429629099        1.9003321357
 C          4.4836760831       -0.7582437943        1.6476004850
 H          4.3327105816       -0.1350527192        2.5338168973
 H          4.4588950720       -1.8051208719        1.9564848377
 H          4.1956404265       -2.1523390566       -2.6311967576
 H          5.2387648502       -3.3044407305       -1.7884532344
 H          4.0367836758       -3.0068647275        0.2870045769
 H          2.8426990054       -3.2544428870       -1.0009834618
 O          1.8992307699       -0.9891052376       -1.0834340688
 C          1.1971918681        0.2038502361       -0.9752040893
 O          0.2962894291        0.3347304695       -1.8253792631
 O          2.9443284627        1.5867738957        1.8795535618
 C          0.7723982678        2.3767112188        0.2364406876
 C         -0.6091562247        1.9774430360        0.6895473149
 C         -0.8223272452        1.6497883011        2.0260130159
 C         -2.0482694004        1.1727135996        2.4505889804
 C         -3.0797240039        0.9843869896        1.5464685703
 C         -2.8702164121        1.2958733619        0.2100206175
 C         -1.6526512557        1.8152683229       -0.2079037841
 H         -1.5075289589        2.0466962285       -1.2507575314
 N         -3.8892360331        1.0442316574       -0.7272613363
 S         -4.6238613190       -0.4576136517       -0.6339719625
 O         -5.0125960348       -0.7826450108       -1.9890524942
 O         -5.7039034692       -0.3985822666        0.3214694511
 C         -3.3805287897       -1.5989141332       -0.0454803751
 C         -2.1544256329       -1.6480473516       -0.6781946059
 C         -1.1972974453       -2.5352397993       -0.2126183752
 C         -1.4786506226       -3.3582522818        0.8663836095
 C         -2.7177072216       -3.3023577614        1.4857532825
 C         -3.6773743133       -2.4138831126        1.0287866429
 H         -4.6494064172       -2.3300020552        1.4873136006
 H         -2.9358766533       -3.9436870173        2.3244578118
 H         -0.7268699356       -4.0436883713        1.2251534341
 H         -0.2325503156       -2.5621278987       -0.6949552448
 H         -1.9319632698       -0.9951087181       -1.5075202900
 H         -3.6115392451        1.2422451485       -1.6781135146
 H         -4.0367256027        0.5934431597        1.8526489118
 H         -2.2005031054        0.9306792654        3.4912184362
 H         -0.0058402707        1.7595956438        2.7257919694
 H          1.2707665382        2.9010430952        1.0622788484
 C          0.7918129147        3.2649903230       -0.9890624714
 C          0.3453461190        4.6904237872       -0.8666292780
 C          1.7952814400        4.3742181356       -1.0736722652
 H          2.2399985139        4.5940551277       -2.0327877505
 H          2.4707233397        4.5024766498       -0.2405900221
 H         -0.2071574625        5.1313416069       -1.6822811430
 H          0.0346760434        5.0314422696        0.1093331154
 H          0.5628317762        2.7394072497       -1.9081339400
