  62
        -98.94107348
 C         -0.7852101033       -1.2035027644       -0.0013152498
 C         -1.4872153790       -0.4944876889        1.0006611792
 C         -2.4492417441        0.5167272489        0.5319181123
 C         -2.5789703977        0.7420882292       -0.7866820512
 C         -3.5233759018        1.6881691856       -1.4858312057
 C         -4.9716591820        1.7427907369       -0.9762159462
 C         -5.5152052548        0.4279151821       -0.3984396593
 H         -6.4745367434        0.2035897709       -0.8685067659
 H         -4.8379882971       -0.3951770373       -0.6322639928
 C         -5.7385481794        0.4902455137        1.1147585782
 H         -6.4493650455       -0.2896320999        1.3984432299
 H         -6.1943554029        1.4515853820        1.3620337194
 C         -4.4881921829        0.2948137364        1.9720421583
 H         -4.7569001794        0.4966946961        3.0119437061
 H         -4.1638324172       -0.7481600547        1.9232779588
 C         -3.2833859073        1.1719760213        1.5945929919
 H         -3.6016447136        2.1694465215        1.3007802040
 H         -2.6408673766        1.2555102139        2.4758223008
 H         -5.5912902435        2.0512417600       -1.8198705030
 H         -5.0621904346        2.5222892516       -0.2208263960
 H         -3.1019730224        2.6956387176       -1.4504167081
 H         -3.5159326121        1.3709025995       -2.5310066863
 O         -1.8069276598        0.1056177408       -1.7108571102
 C         -0.9077144536       -0.8860436193       -1.3529800128
 O         -0.2994968046       -1.3958856615       -2.3114470541
 H          1.6924867631       -0.3555927521        1.1101007106
 C          2.1887252963       -1.0066693242        0.4043353525
 C          1.5224144510       -2.1299477056       -0.0717884315
 C          2.1843250891       -2.9744086210       -0.9530649264
 C          3.4757055093       -2.6872027293       -1.3590090645
 C          4.1303134266       -1.5608918836       -0.8973463869
 C          3.4807024125       -0.7160980374       -0.0030032634
 N          4.1300823241        0.4201317510        0.4960771512
 S          3.2884559609        1.7277351556        1.0784381336
 O          4.2455439158        2.8136761255        1.0281450511
 O          2.7500419962        1.4376192765        2.3839656786
 C          1.9645008638        2.0687763203       -0.0681058550
 C          2.1675548384        1.9191212081       -1.4251239785
 C          1.1480974385        2.2659903292       -2.2964481644
 C         -0.0428482821        2.7727481757       -1.8020761751
 C         -0.2309903035        2.9191884053       -0.4368387110
 C          0.7783918076        2.5573631528        0.4395448764
 H          0.6645000342        2.6378055621        1.5091958433
 H         -1.1561577789        3.3109166539       -0.0455967598
 H         -0.8283493729        3.0487983503       -2.4875633766
 H          1.2845131274        2.1391778183       -3.3582387878
 H          3.1041676691        1.5322124836       -1.7919310890
 H          4.9959319851        0.6717633248        0.0443704034
 H          5.1357688335       -1.3352906651       -1.2177000646
 H          3.9772796436       -3.3475417574       -2.0498825084
 H          1.6877498371       -3.8521354927       -1.3310180527
 C          0.1119857254       -2.3591128990        0.4055470234
 H          0.1211024405       -2.3472015981        1.5054949429
 C         -0.4890470038       -3.6686828692       -0.0628219884
 C         -0.1376795853       -4.9473701141        0.6352307209
 C         -1.5029645913       -4.3527464807        0.8022217352
 H         -2.3413370046       -4.8407809049        0.3279263849
 H         -1.7474171521       -3.8851838679        1.7450714239
 H          0.5462954889       -4.8880217040        1.4682633460
 H         -0.0399428334       -5.8474248750        0.0475189919
 H         -0.6506144931       -3.6967063108       -1.1347163900
 O         -1.3325970903       -0.7076124863        2.2336772322
