  62
        -98.93434528
 C         -1.8088775902       -1.0074988500        0.0157910888
 C         -2.2786728502        0.3093903797        0.2267150505
 C         -3.7259178702        0.4646060094        0.4966839306
 C         -4.5003891202       -0.6333404707        0.5635726091
 C         -5.9876167902       -0.7212459510        0.7827074489
 C         -6.7950754601       -0.3397488392       -0.4677910707
 C         -6.3097756300        0.9166419918       -1.1856613789
 H         -5.2692657000        0.7796898621       -1.4857759090
 H         -6.8985040300        1.0247887630       -2.1004917088
 C         -6.4416746701        2.2125529307       -0.3890153471
 H         -6.1595477800        3.0318529116       -1.0553325260
 H         -7.4878541001        2.3574067203       -0.1104815370
 C         -5.5823768001        2.3131275189        0.8736701231
 H         -6.0221172802        1.7545480578        1.6956131423
 H         -5.5777597701        3.3631402885        1.1806355145
 C         -4.1236188801        1.9089596291        0.6846233726
 H         -3.5483905902        2.2593617079        1.5502933431
 H         -3.7087165201        2.4533379103       -0.1717192266
 H         -7.8400348701       -0.2158556696       -0.1784978206
 H         -6.7370767701       -1.1709338582       -1.1749392518
 H         -6.2051087303       -1.7621778713        1.0324218974
 H         -6.2782552403       -0.1098177421        1.6316782197
 O         -3.9933256302       -1.8885352905        0.3941682874
 C         -2.6581498602       -2.1109309502        0.1264483272
 O         -2.3475895303       -3.3141860800        0.0198203355
 O         -1.5434396201        1.3302836797        0.1918262520
 C         -0.3497844802       -1.3062578397       -0.2835267716
 C          0.5475945298       -0.5035411109        0.6257697196
 C          0.4417930997       -0.6969320028        2.0014234493
 C          1.2307068397        0.0188543659        2.8794892204
 C          2.1607529097        0.9274300366        2.4041762917
 C          2.2780745898        1.1243360384        1.0346927720
 C          1.4758425799        0.4102712797        0.1542016309
 H          1.5664109799        0.6127808111       -0.8992458488
 N          3.2105162399        2.0424846391        0.5212085433
 S          4.2019346599        1.5789041708       -0.7418592773
 O          5.3014896900        2.5181177507       -0.7073437959
 O          3.4590521200        1.5162117225       -1.9738213274
 C          4.7698555799       -0.0462016998       -0.2750036895
 C          4.1810569099       -1.1650700191       -0.8271764411
 C          4.5823814798       -2.4181293697       -0.3915960928
 C          5.5608670497       -2.5294541310        0.5839255371
 C          6.1487750997       -1.3957124818        1.1244702187
 C          5.7475808198       -0.1410430012        0.6962696804
 H          6.1862624998        0.7639513582        1.0843573417
 H          6.9136922197       -1.4867154629        1.8787801487
 H          5.8683640397       -3.5064132615        0.9220376158
 H          4.1270170798       -3.3004838491       -0.8123791040
 H          3.4285267599       -1.0362761980       -1.5878217209
 H          3.7382926399        2.5355983681        1.2265947240
 H          2.7782605397        1.4900809456        3.0878673425
 H          1.1272655596       -0.1343804755        3.9431689001
 H         -0.2844827204       -1.4080015033        2.3722389483
 H         -0.2229496302       -2.3704541700       -0.0231888130
 C          0.0168670999       -1.1739237177       -1.7540256414
 C         -1.0002441300       -1.3808623661       -2.8351954417
 C         -0.4332283500       -0.0161231065       -2.5908810098
 H          0.2598757401        0.3952980745       -3.3110465192
 H         -1.0571012400        0.7260422129       -2.1183956088
 H         -0.7004460600       -1.9129903649       -3.7255703524
 H         -2.0201482200       -1.5731922165       -2.5347702920
 H          1.0111934699       -1.5593734274       -1.9592076818
