  62
        -98.95003468
 C          1.9079003011        1.0331771268        0.0209334692
 C          1.3343499920        1.8112781175       -1.0149382807
 C          0.2679036334        2.7343927490       -0.6087339705
 C         -0.0710875662        2.8342749296        0.6895516596
 C         -1.0906191547        3.7757581311        1.2719315197
 C         -2.5376929154        3.2688962132        1.2095465401
 C         -3.1655145957        3.2737629139       -0.1842473198
 H         -4.2368015660        3.1075037054       -0.0568410195
 H         -3.0393872045        4.2566679437       -0.6394343199
 C         -2.6093984075        2.1945563830       -1.1223954698
 H         -2.0908680484        1.4303309624       -0.5394730298
 H         -3.4303229383        1.6847187542       -1.6327822695
 C         -1.6605742370        2.7056550116       -2.2066033801
 H         -2.2089986563        3.3394355123       -2.9078664700
 H         -1.2915372784        1.8343102510       -2.7553056401
 C         -0.4531115158        3.4933078399       -1.6804067004
 H          0.2441233242        3.6435401189       -2.5086903106
 H         -0.7732566343        4.4679726804       -1.3110415404
 H         -3.1355724844        3.9146046241        1.8565639302
 H         -2.5762061868        2.2561437532        1.6168819002
 H         -1.0218266134        4.7402800310        0.7677423496
 H         -0.8194525042        3.9124182708        2.3209872696
 O          0.5251831830        2.0911414089        1.6585393095
 C          1.4901336516        1.1406177675        1.3471803593
 O          1.8877623809        0.4828227870        2.3265042393
 O          1.7052259816        1.7441533568       -2.2177494608
 C          2.9556465796       -0.0084971048       -0.3369956809
 C          2.3688853077       -1.3758644739       -0.0807199806
 C          2.9039752066       -2.2988575946        0.8073697393
 C          2.2619157850       -3.5055195737        1.0280272896
 C          1.0749660644       -3.8076441820        0.3864625099
 C          0.5355862554       -2.8949978614       -0.5145704801
 C          1.1978459471       -1.7018616723       -0.7558806203
 H          0.7831218379       -1.0019392718       -1.4672571803
 N         -0.6631136651       -3.1792880597       -1.1915914998
 S         -1.8694388735       -2.0353368180       -1.3605606596
 O         -2.9784944247       -2.7695919565       -1.9293881292
 O         -1.3881999021       -0.9146794988       -2.1236343798
 C         -2.2910597124       -1.5360098773        0.2993837905
 C         -3.4416797430       -2.0375975656        0.8760357508
 C         -3.7532933522       -1.6788553850        2.1775206508
 C         -2.9057919808       -0.8394321662        2.8848982406
 C         -1.7506867403       -0.3488300279        2.2956801402
 C         -1.4418208111       -0.6943174984        0.9893310502
 H         -0.5504331507       -0.3194332997        0.5100526300
 H         -1.0762329392        0.2960627212        2.8385246400
 H         -3.1433410702       -0.5631741957        3.9000991406
 H         -4.6520994426       -2.0565283437        2.6376323911
 H         -4.0698447241       -2.6876479348        0.2888954810
 H         -1.0647901663       -4.0773180491       -0.9633005096
 H          0.5682409231       -4.7417549613        0.5756195101
 H          2.6850410641       -4.2149361142        1.7227384995
 H          3.8152730271       -2.0705352758        1.3343248391
 H          3.1124876095        0.0981795749       -1.4204897209
 C          4.2647867301        0.2484995335        0.3758228988
 C          5.5404399892       -0.2974898884       -0.1903066715
 C          5.2632695413        1.1738187520       -0.2497320716
 H          5.8274718124        1.8330620112        0.3926938982
 H          5.0075962317        1.6097945723       -1.2046467915
 H          6.2999446389       -0.6481793594        0.4917272184
 H          5.4770937282       -0.8620465684       -1.1083387314
 H          4.1571056404        0.2878037437        1.4533911388
