  62
        -98.93697181
 C         -0.7567163696       -1.4713118181        0.0029999118
 C         -1.5427539415       -0.9175843700        1.0434728178
 C         -2.5990231012        0.0312428205        0.6553679708
 C         -2.7165778247        0.3718273042       -0.6392118155
 C         -3.7436679657        1.2784177854       -1.2616077018
 C         -4.9392599044        0.4641757977       -1.7846229779
 C         -6.0365558018        0.2001354138       -0.7539705189
 H         -6.5666534962        1.1324785738       -0.5483593157
 H         -6.7512791867       -0.4884262377       -1.2106200877
 C         -5.5589891421       -0.3950186280        0.5733803074
 H         -6.4159467736       -0.8723429324        1.0526130896
 H         -4.8207662838       -1.1757723256        0.3810852614
 C         -4.9735290126        0.6537437994        1.5309160802
 H         -5.4572714864        0.5616943231        2.5054364758
 H         -5.2156375082        1.6491227388        1.1591544869
 C         -3.4613989380        0.5447004318        1.7756276035
 H         -3.0802533229        1.5196731756        2.0939064385
 H         -3.2747034450       -0.1456037499        2.6040025535
 H         -4.5558367367       -0.4850373833       -2.1681031755
 H         -5.3863767424        0.9977547305       -2.6259856020
 H         -3.2573198361        1.7650708903       -2.1101343685
 H         -4.0706316427        2.0392318410       -0.5586875387
 O         -1.9015589181       -0.1344863291       -1.6037644868
 C         -0.9248753708       -1.0840519215       -1.3274520497
 O         -0.3166113738       -1.4796214133       -2.3372505035
 O         -1.3836336417       -1.2289812198        2.2545596353
 C          0.2744095326       -2.5033536716        0.4199989832
 C          1.5879743704       -1.8614503269        0.7870898690
 C          2.2820492193       -2.2794225609        1.9175566762
 C          3.5030472560       -1.7175416869        2.2432070563
 C          4.0462202581       -0.7181776738        1.4567678066
 C          3.3547358977       -0.2842021495        0.3310797391
 C          2.1340628470       -0.8567241423        0.0004304183
 H          1.6179972956       -0.5240067459       -0.8876741975
 N          3.8811352199        0.7319403050       -0.4789700316
 S          2.8609338246        1.8451585751       -1.1870100097
 O          2.2571652864        1.3031184930       -2.3763462452
 O          3.6998095451        3.0094328986       -1.3894396207
 C          1.6158841963        2.2326838962        0.0311167196
 C          2.0044681223        2.4862013218        1.3320012084
 C          1.0435279601        2.8510417029        2.2601143336
 C         -0.2801389244        2.9789658736        1.8695452074
 C         -0.6530486158        2.7328508626        0.5581438090
 C          0.3012060126        2.3456532896       -0.3692051503
 H          0.0486808714        2.1226682583       -1.3945821310
 H         -1.6805474016        2.8376943340        0.2502315456
 H         -1.0250995890        3.2745837167        2.5913746708
 H          1.3292546628        3.0403151055        3.2821433141
 H          3.0430365988        2.4008472623        1.6063794022
 H          4.7292085021        1.1600542712       -0.1374305942
 H          4.9978963980       -0.2752992083        1.7071925850
 H          4.0337439083       -2.0543650243        3.1202651295
 H          1.8514971147       -3.0439380771        2.5469646892
 H         -0.1331588880       -2.9510814069        1.3412877713
 C          0.4459605694       -3.6308023105       -0.5887281206
 C          1.6214746864       -3.7431548737       -1.5072025317
 C          1.4724765991       -4.7022814461       -0.3667374209
 H          1.2041744494       -5.7251079546       -0.5835975877
 H          2.1436976006       -4.5871687139        0.4704933784
 H          1.4381226314       -4.0880550468       -2.5133571817
 H          2.3870670005       -2.9849701131       -1.4487309919
 H         -0.5080493074       -3.9502913221       -0.9966550502
