  62
        -98.94517950
 C          2.5196219502       -0.3252682340       -0.0462808540
 C          2.1877961742       -1.3272521166        0.8952065203
 C          1.5266420225       -2.5234832927        0.3609571373
 C          1.2891753823       -2.6067267474       -0.9609284288
 C          0.6281868443       -3.7709393785       -1.6411873238
 C         -0.8872856617       -3.5754573493       -1.7731564741
 C         -1.5825255935       -3.1749612744       -0.4717907539
 H         -1.2797134894       -2.1598593156       -0.2041639109
 H         -2.6551048423       -3.1364162095       -0.6787074513
 C         -1.3254396369       -4.1136004028        0.7146584977
 H         -2.2707619800       -4.2783677957        1.2358768183
 H         -0.9773212246       -5.0830016455        0.3547988922
 C         -0.3387609377       -3.5674425759        1.7489892818
 H         -0.4356423901       -4.1629105984        2.6612364562
 H         -0.6111549447       -2.5373230398        1.9974279471
 C          1.1399793697       -3.5961121863        1.3395670047
 H          1.3962589790       -4.5851881794        0.9528745208
 H          1.7392228576       -3.4114537229        2.2362793913
 H         -1.3207126375       -4.5045087140       -2.1496877785
 H         -1.0722116509       -2.7863023715       -2.5055965251
 H          1.0580862831       -3.8672786421       -2.6400930948
 H          0.8396653654       -4.6773578773       -1.0763873903
 O          1.6269793538       -1.6270004297       -1.8371014161
 C          2.1989844903       -0.4432737420       -1.3989313475
 O          2.3976401570        0.3961294894       -2.2983529422
 O          2.4418859834       -1.2260976511        2.1285331294
 C          3.1154768417        0.9795223235        0.4539234319
 C          2.1016225561        2.0811468060        0.2591566771
 C          2.4028981027        3.3495190590       -0.2160758946
 C          1.3996114041        4.2907597716       -0.3883150285
 C          0.0787150727        3.9834927514       -0.1189105273
 C         -0.2299971088        2.7173443515        0.3652126382
 C          0.7790450469        1.7985341152        0.5806048144
 H          0.5257875237        0.8263929877        0.9806574650
 N         -1.5837010865        2.3366700412        0.5731307549
 S         -1.9440883225        0.7091611785        0.3809390574
 O         -1.6997049362       -0.0425856822        1.5968810814
 O         -1.2954926630        0.2511585071       -0.8207998114
 C         -3.7026215794        0.8180173016        0.1077638073
 C         -4.5860553610        0.3731006342        1.0714219816
 C         -5.9479317659        0.4925904727        0.8401476445
 C         -6.3999858441        1.0543895173       -0.3437570503
 C         -5.5005184852        1.4953573421       -1.3036182391
 C         -4.1387358457        1.3772547695       -1.0782494745
 H         -3.4009885099        1.6972943778       -1.7959064999
 H         -5.8552422393        1.9294122473       -2.2245396330
 H         -7.4597177107        1.1475046822       -0.5213702990
 H         -6.6487477581        0.1478400341        1.5833532507
 H         -4.1875366465       -0.0616471365        1.9740387496
 H         -2.0121596372        2.7314124506        1.3978814612
 H         -0.7081069320        4.7017600485       -0.2831639482
 H          1.6515666503        5.2726893909       -0.7590956611
 H          3.4224358401        3.6001870128       -0.4607438672
 H          3.2594825025        0.8365313351        1.5363102545
 C          4.4564957866        1.2655752435       -0.1854449405
 C          5.4913343815        2.0563180355        0.5566877690
 C          5.6762637087        0.5832960201        0.3551759951
 H          6.4282477890        0.2453070755       -0.3416364271
 H          5.5416184935       -0.0718085432        1.2036889503
 H          6.1224817192        2.7308561121       -0.0017228420
 H          5.2399638804        2.4026627683        1.5478080794
 H          4.3859376196        1.3885432893       -1.2599659218
