  62
        -98.94391839
 C          1.5882550923        1.4293644555       -0.2127880312
 C          2.7467552135        0.9190827776        0.4100244856
 C          3.2938787947       -0.3415352707       -0.1262998214
 C          2.6673600228       -0.9290534074       -1.1632180383
 C          2.9983416592       -2.2364765162       -1.8324638826
 C          2.5484176922       -3.4449271627       -0.9974881296
 C          2.9067674716       -3.3681070239        0.4839630581
 H          2.4643509311       -4.2392883296        0.9753517062
 H          2.4270205738       -2.4873806863        0.9161895615
 C          4.4011198120       -3.3579360481        0.7995482859
 H          4.8587628748       -4.2585234717        0.3839839589
 H          4.4996741917       -3.4071361804        1.8870632121
 C          5.1872113533       -2.1399020767        0.3077355676
 H          5.4116056399       -2.2176170051       -0.7527083649
 H          6.1487146861       -2.1422291994        0.8295505619
 C          4.5324899648       -0.7957100806        0.6084010101
 H          5.2747083976       -0.0033799664        0.4511153915
 H          4.2840880484       -0.7491707224        1.6751222494
 H          2.9775095816       -4.3483325821       -1.4352361421
 H          1.4591935368       -3.5145742623       -1.0628389817
 H          4.0599486820       -2.2918985893       -2.0540008867
 H          2.4562571896       -2.2497472848       -2.7807179774
 O          1.5585881864       -0.3908037746       -1.7441740281
 C          0.9774125535        0.7691287342       -1.2770029335
 O         -0.0530391871        1.1166574648       -1.8878213638
 O          3.3036667678        1.4862403442        1.3916288588
 C          0.9407043102        2.6889507581        0.3306602405
 C         -0.4922563382        2.4076361367        0.7117879028
 C         -1.5299798780        3.3063389489        0.4960561232
 C         -2.8290376232        2.9778914258        0.8445825163
 C         -3.1255226138        1.7416681069        1.3888987839
 C         -2.0927763016        0.8403886030        1.6175033752
 C         -0.7889536274        1.1897743161        1.3103376484
 H         -0.0004712183        0.4758525849        1.4996527972
 N         -2.3342340926       -0.4515484418        2.1346323795
 S         -2.0292070354       -1.7208057383        1.0769167017
 O         -2.4253115875       -2.9136428214        1.7959647354
 O         -0.6632084662       -1.6711972628        0.6283647250
 C         -3.1733318557       -1.4329893803       -0.2615441138
 C         -4.4009460895       -2.0671488117       -0.2179780385
 C         -5.3382151224       -1.7867717303       -1.1982298963
 C         -5.0377356311       -0.8700204779       -2.1949061858
 C         -3.8033275130       -0.2403538470       -2.2215076597
 C         -2.8567305438       -0.5189795575       -1.2462744246
 H         -1.8881501696       -0.0423333354       -1.2557258871
 H         -3.5609217323        0.4729044016       -2.9929418545
 H         -5.7681939884       -0.6453743659       -2.9561103393
 H         -6.2974635034       -2.2785426636       -1.1801950276
 H         -4.5872376867       -2.7729912911        0.5755518455
 H         -3.2640546043       -0.5653694764        2.5164162906
 H         -4.1423803702        1.4723826808        1.6322792041
 H         -3.6238881507        3.6866036719        0.6696963672
 H         -1.3217528403        4.2638165248        0.0470997902
 H          1.5025460258        2.9395243879        1.2434055090
 C          1.0837130984        3.8275481748       -0.6588486323
 C          1.2126937806        5.2416908578       -0.1787991949
 C          2.4004324829        4.5358130362       -0.7581442473
 H          2.7551245703        4.8314989877       -1.7340534030
 H          3.1845178891        4.2142163937       -0.0881607037
 H          0.7535298516        6.0272915598       -0.7597765908
 H          1.1975545902        5.4119085083        0.8871148559
 H          0.5432854767        3.6440732366       -1.5808959114
