  62
        -98.94433132
 C          2.0425847886        1.3729263591        0.0271669424
 C          2.3507387473        0.4105327873       -0.9646195368
 C          3.7120494599       -0.1455521074       -0.9217527233
 C          4.5757003626        0.2759247956        0.0188009232
 C          5.9677929528       -0.2508174273        0.2086290133
 C          5.9874813519       -1.4236634414        1.1988401736
 C          4.9419895734       -2.4995611459        0.9043076976
 H          5.0716186582       -3.2904760864        1.6463521857
 H          3.9444914868       -2.0798730660        1.0553857528
 C          5.0299165291       -3.1022750816       -0.5047986816
 H          4.9332669203       -4.1873743536       -0.4275771890
 H          6.0097992951       -2.8945689047       -0.9362391207
 C          3.9408039622       -2.6265598165       -1.4681725219
 H          2.9604072279       -2.7489758807       -1.0000763602
 H          3.9639096374       -3.2712612312       -2.3510016182
 C          4.0666720043       -1.1774679787       -1.9555617216
 H          5.0728679058       -1.0058256826       -2.3428099057
 H          3.3551909695       -1.0399383701       -2.7749877373
 H          6.9837976544       -1.8693022483        1.1864885197
 H          5.8021724792       -1.0332028887        2.2021752853
 H          6.3662963506       -0.5671341482       -0.7533429387
 H          6.5894937782        0.5552503898        0.6019653797
 O          4.2526746169        1.2119134646        0.9458464661
 C          2.9885632957        1.7717917290        0.9788057094
 O          2.8284784893        2.6122420969        1.8860437599
 H         -0.3107348542       -0.2959008666       -0.7684918581
 C         -0.7404481282       -0.0231442109        0.1838713120
 C         -0.3259626532        1.1461808638        0.8058506085
 C         -0.8786694427        1.4756688524        2.0377806107
 C         -1.8171777260        0.6509127057        2.6339676604
 C         -2.2244751608       -0.5160546870        2.0133075410
 C         -1.6756625898       -0.8540760406        0.7827232148
 N         -2.0934839878       -2.0330760352        0.1374110419
 S         -3.7474491377       -2.2416570849       -0.0263305959
 O         -4.2874128572       -2.7808232540        1.1973129836
 O         -3.9210836835       -3.0600437213       -1.2057286558
 C         -4.3858738632       -0.5972196317       -0.2952496340
 C         -3.9686256565        0.0836515300       -1.4218897324
 C         -4.4077128187        1.3820094002       -1.6205455620
 C         -5.2493782100        1.9760778246       -0.6926082840
 C         -5.6630868155        1.2773984254        0.4306019845
 C         -5.2262167258       -0.0216993749        0.6354108841
 H         -5.5197345838       -0.5994419124        1.4965829056
 H         -6.3194877751        1.7409978861        1.1491872889
 H         -5.5839041883        2.9896345108       -0.8476689888
 H         -4.0881847266        1.9257916488       -2.4950261567
 H         -3.3153601684       -0.4067183938       -2.1259851987
 H         -1.6197557513       -2.1951831208       -0.7396970705
 H         -2.9513959925       -1.1734026133        2.4625667120
 H         -2.2353761281        0.9188931027        3.5921032607
 H         -0.5568352663        2.3796672274        2.5340262825
 C          0.6855671134        2.0517212691        0.1443466445
 H          0.8456849400        2.9121731952        0.8070918359
 C          0.1614592846        2.5635029867       -1.1845068592
 C         -0.8939044998        3.6262729763       -1.1852624115
 C          0.5026091995        3.9557026282       -1.6185281466
 H          0.6920669156        4.1366357504       -2.6660135137
 H          1.1172461595        4.5489176795       -0.9568411306
 H         -1.2292397210        3.9983789032       -0.2292570758
 H         -1.6671818376        3.5827426653       -1.9362362379
 H          0.1138096910        1.8026309053       -1.9517394037
 O          1.5493129716        0.0156290036       -1.8547767242
