  62
        -98.94493345
 C          2.1668113096        0.8797215609       -0.0639143012
 C          2.9925270997        0.4996658714        1.0270064688
 C          3.7314931000       -0.7598183185        0.8807095291
 C          3.5672055302       -1.4889432788       -0.2378147408
 C          4.2824858105       -2.7733079986       -0.5389376305
 C          5.5907123104       -2.5175656885       -1.3003506006
 C          6.4732299302       -1.4422946881       -0.6664430609
 H          7.3807642501       -1.3697206080       -1.2695654409
 H          5.9637309299       -0.4784561783       -0.7346028910
 C          6.8510435903       -1.7127503077        0.7965978392
 H          7.9162793402       -1.5105787574        0.9260721591
 H          6.6901275605       -2.7653177877        1.0321956894
 C          6.1063383901       -0.8462923677        1.8139342190
 H          6.5996149001       -0.9599075274        2.7828159290
 H          6.1861242298        0.2051666523        1.5271716488
 C          4.6226944402       -1.1794319680        2.0159106091
 H          4.5089127204       -2.2463696280        2.2187377794
 H          4.2728512500       -0.6243596379        2.8911265690
 H          5.3432438703       -2.2030309887       -2.3169030307
 H          6.1433971106       -3.4568575183       -1.3605255604
 H          4.4882654006       -3.2942742084        0.3942336296
 H          3.6280612806       -3.3940778089       -1.1535468304
 O          2.7532005101       -1.1067160392       -1.2527903908
 C          2.0346498198        0.0789667407       -1.1983804811
 O          1.3433747497        0.2844968403       -2.2167023511
 H         -0.6165617506        1.3127951899       -1.5550584213
 C         -0.9375984005        1.3790349101       -0.5266943613
 C         -0.0468718006        1.8196234105        0.4418652286
 C         -0.4690053106        1.8527341706        1.7667743086
 C         -1.7484503205        1.4541544804        2.1100649787
 C         -2.6289503404        1.0039320900        1.1422202089
 C         -2.2120237504        0.9556289098       -0.1810838811
 N         -3.0922759403        0.4625785894       -1.1676156210
 S         -3.6084842499       -1.1247959007       -0.9456872207
 O         -2.6434330497       -1.8983803603       -0.1970761206
 O         -3.9408205198       -1.6116826711       -2.2670894206
 C         -5.1098764300       -0.9476207609       -0.0034385707
 C         -5.2296403698       -1.5672528407        1.2249848094
 C         -6.4098449398       -1.4200465608        1.9373666394
 C         -7.4434478200       -0.6603978412        1.4111210393
 C         -7.3079799102       -0.0462313114        0.1747816692
 C         -6.1313710602       -0.1901721312       -0.5428623708
 H         -5.9852890903        0.2657778486       -1.5077445209
 H         -8.1140682303        0.5434504183       -0.2310560509
 H         -8.3601329900       -0.5468332013        1.9679650993
 H         -6.5165001496       -1.8970409506        2.8983943695
 H         -4.3962987896       -2.1428091704        1.5954934895
 H         -2.7173515504        0.5601791193       -2.1016932711
 H         -3.6234912803        0.6802281498        1.4028777989
 H         -2.0615699405        1.4875891705        3.1424337387
 H          0.2262001193        2.1727863510        2.5295596285
 C          1.3777525293        2.1719149608        0.0881372785
 H          1.8231740492        2.6792807410        0.9541467284
 C          1.4825107190        3.0883391805       -1.1129357117
 C          1.1063682387        4.5307594905       -0.9587816820
 C          2.5437123287        4.1458229908       -1.1349966419
 H          3.0281131487        4.3681805807       -2.0740005020
 H          3.1993629488        4.2144980411       -0.2792625619
 H          0.6010436985        5.0213058102       -1.7763799321
 H          0.7867149186        4.8599341906        0.0182526480
 H          1.2524284391        2.6037546803       -2.0527881016
 O          3.1064847696        1.1882098216        2.0755486987
