  62
        -98.93989457
 C         -2.6372367276       -0.2108526741        0.5566244944
 C         -2.1726975446        0.2384188209       -0.7057479036
 C         -1.9987444029        1.6926096022       -0.8468427972
 C         -2.2585472428        2.4970522433        0.1983006330
 C         -2.1255910655        3.9920488288        0.1904983810
 C         -0.7397484802        4.4471905824        0.6649134627
 C          0.4243050319        3.7362091998       -0.0260960488
 H          1.3453616583        4.1931879225        0.3437646115
 H          0.4483593137        2.6870462195        0.2772603468
 C          0.4027809917        3.8120072008       -1.5587576360
 H         -0.2381009971        4.6335404023       -1.8833700554
 H          1.4141338166        4.0284030739       -1.9095806117
 C         -0.0369668549        2.5196538522       -2.2508941648
 H          0.2312463027        2.5912384926       -3.3090273495
 H          0.5158516944        1.6724623604       -1.8332275201
 C         -1.5368733387        2.2032085502       -2.1819557173
 H         -2.1128841466        3.0825295988       -2.4807218124
 H         -1.7384107638        1.3991723401       -2.8962025824
 H         -0.6591837628        5.5234136563        0.4983396240
 H         -0.6627119681        4.2619211158        1.7387670104
 H         -2.3128793010        4.3579329513       -0.8173539037
 H         -2.8809282089        4.4035041331        0.8629114450
 O         -2.6623824652        2.0272819801        1.4071498203
 C         -2.8270941466        0.6694097027        1.6233704040
 O         -3.1441522617        0.3737276442        2.7944216212
 O         -1.9329722657       -0.5229316095       -1.6781651745
 C         -2.8149999219       -1.6920046734        0.8587001502
 C         -1.5985685769       -2.4260317580        0.3520613311
 C         -1.6258040547       -3.4555360958       -0.5785116796
 C         -0.4462580684       -4.0010128050       -1.0568754328
 C          0.7812850109       -3.5275257077       -0.6287231515
 C          0.8146189344       -2.5187573294        0.3210487777
 C         -0.3635149900       -1.9914634200        0.8170645453
 H         -0.3249863487       -1.1814628095        1.5372198143
 N          2.0740110686       -1.9676840438        0.7186324544
 S          2.3089917617       -0.4947097019       -0.0899759049
 O          1.5331310247        0.5514452909        0.5437361775
 O          2.0876534368       -0.7150161150       -1.4952943452
 C          4.0463406518       -0.2185236962        0.2033325101
 C          4.4609710233        0.8302810666        0.9996474837
 C          5.8177392734        1.0022083074        1.2286095467
 C          6.7295733094        0.1241061741        0.6637207266
 C          6.2970379934       -0.9258331455       -0.1333288086
 C          4.9430073036       -1.1011963544       -0.3675087026
 H          4.5586524002       -1.8967507213       -0.9836914651
 H          7.0095291569       -1.6062354365       -0.5710758762
 H          7.7841546247        0.2594626679        0.8449594012
 H          6.1560049059        1.8184167950        1.8465331579
 H          3.7152347656        1.4885372855        1.4162361737
 H          2.0759123214       -1.7513833530        1.7086091174
 H          1.7053646959       -3.9127462119       -1.0272510595
 H         -0.4854373448       -4.7884047713       -1.7942397177
 H         -2.5712235018       -3.8030727093       -0.9623790597
 H         -2.8165743202       -1.7569254935        1.9599130652
 C         -4.1328543507       -2.2863025444        0.3883128468
 C         -5.3595714010       -1.4331894377        0.2680277473
 C         -4.7129806499       -1.9935804889       -0.9612593128
 H         -5.2179366036       -2.7929491868       -1.4837402445
 H         -4.1632602747       -1.3278916692       -1.6070551710
 H         -6.3044283069       -1.8452976308        0.5889587255
 H         -5.2527825944       -0.3763767547        0.4668436698
 H         -4.2832182085       -3.2891120843        0.7764051711
