  62
        -98.93699061
 C          1.7499394695        1.0850073295       -0.1057884015
 C          2.2850094895       -0.0857073209       -0.6932644607
 C          3.7532442995       -0.1957400507       -0.6869196708
 C          4.4850692595        0.8009177098       -0.1564237617
 C          5.9804186995        0.8029830800       -0.0103311320
 C          6.3948372498       -0.0803122790        1.1838143287
 C          7.1977017399       -1.3233068492        0.7997594795
 H          8.2192589398       -1.0247487193        0.5552460691
 H          7.2446384401       -1.9673823385        1.6804475800
 C          6.6514183797       -2.1323139702       -0.3807024398
 H          7.1547415298       -3.1013470301       -0.3620790591
 H          6.9364729496       -1.6525169609       -1.3182186502
 C          5.1350236298       -2.3656523404       -0.3905377294
 H          4.7277218699       -2.2993438896        0.6185655906
 H          4.9500566298       -3.3833129606       -0.7406403685
 C          4.3474883495       -1.4233110912       -1.3200926000
 H          4.9787241294       -1.1311212517       -2.1640965903
 H          3.4901039195       -1.9693107816       -1.7253781694
 H          6.9907438798        0.5086941616        1.8825842581
 H          5.4905583999       -0.3806143087        1.7172186390
 H          6.4397257794        0.4451851894       -0.9290912518
 H          6.2890275694        1.8352767402        0.1557447272
 O          3.9317087795        1.9145362601        0.3908383475
 C          2.5577930094        2.0846810000        0.4346132776
 O          2.1856803894        3.1459182504        0.9741606768
 H         -1.8661318205       -0.3010517615       -0.9082332699
 C         -1.4817480003       -0.5659058707        0.0622410103
 C         -0.4203295203        0.1294831899        0.6185912696
 C          0.0505295399       -0.2601971591        1.8708707898
 C         -0.5078658499       -1.3343493386        2.5340869807
 C         -1.5585666699       -2.0365395392        1.9693143414
 C         -2.0426832401       -1.6503869802        0.7260115812
 N         -3.1006377802       -2.3491291208        0.1304897619
 S         -4.2317745904       -1.5640393616       -0.8059667885
 O         -5.3900564603       -2.4319365217       -0.7693973776
 O         -3.7056972206       -1.2799629726       -2.1171660688
 C         -4.5932790404       -0.0383534210        0.0477776604
 C         -4.6310564806        1.1402423784       -0.6675733705
 C         -4.9254072806        2.3214105389       -0.0051544714
 C         -5.1745973304        2.3030769000        1.3579507786
 C         -5.1389335302        1.1096459105        2.0629868696
 C         -4.8485329802       -0.0740318100        1.4045798204
 H         -4.8214277000       -1.0152173096        1.9286377612
 H         -5.3350776600        1.0986944213        3.1229887796
 H         -5.3989201704        3.2236365803        1.8733405879
 H         -4.9558183608        3.2490175385       -0.5542721321
 H         -4.4244190908        1.1098571276       -1.7249337806
 H         -3.5048658000       -3.0853702104        0.6890144926
 H         -1.9906316397       -2.8836214788        2.4799739222
 H         -0.1247959697       -1.6290490479        3.4994705409
 H          0.8742086899        0.2871765013        2.3093597492
 C          0.2459980194        1.2947767794       -0.0694858314
 H          0.0796135795        2.1943872099        0.5409396179
 C         -0.2682174408        1.5566295283       -1.4692394416
 C         -1.4873315209        2.4004496780       -1.6817586320
 C         -0.1340686310        2.9359877378       -2.0385887027
 H          0.1231371588        3.0411811970       -3.0819479428
 H          0.3038372490        3.6916178884       -1.4025344133
 H         -1.9778437908        2.7990487886       -0.8067871323
 H         -2.1584107210        2.1339461973       -2.4843048517
 H         -0.1016187308        0.7208346978       -2.1398698209
 O          1.5757122795       -0.9943266213       -1.1998634599
