  62
        -98.93369472
 C          2.4185826650       -0.3766787657       -0.2574523819
 C          3.5854196729       -0.2067276349       -1.0350213264
 C          4.7715373320        0.3418211249       -0.3492113812
 C          4.6712298121        0.6669449921        0.9533897595
 C          5.7446939328        1.2024111749        1.8631536526
 C          6.7402775387        0.1177841833        2.3065648825
 C          7.2019594564       -0.8243724182        1.1977331012
 H          7.8071565254       -1.6090603511        1.6594265516
 H          6.3305407539       -1.3078129954        0.7523856514
 C          8.0396425181       -0.1754850965        0.0984931374
 H          8.3659294462       -0.9728286362       -0.5742167448
 H          8.9326960485        0.2689869037        0.5435840234
 C          7.3326991664        0.8919918522       -0.7391051585
 H          7.9588159479        1.0854845367       -1.6151399550
 H          7.2619257177        1.8316496534       -0.1979318670
 C          5.9613621798        0.4834238948       -1.2680970130
 H          5.6558273624        1.2044493254       -2.0363264319
 H          6.0510617911       -0.4741412690       -1.7937584073
 H          6.2569387491       -0.4879375138        3.0769400037
 H          7.6058773917        0.6071985387        2.7561428316
 H          5.2383231720        1.5926613350        2.7487678351
 H          6.2598380091        2.0304106153        1.3853459822
 O          3.5172764078        0.4981567910        1.6608062597
 C          2.3705319648       -0.0206454011        1.0894960641
 O          1.4018911290       -0.1147442659        1.8669383345
 O          3.6432344014       -0.5033444315       -2.2599361570
 C          1.1708614124       -0.9395918965       -0.9128631538
 C          0.0541498478        0.0720428759       -0.8321388512
 C          0.2810487399        1.3540618963       -1.3272479904
 C         -0.7057011197        2.3186703046       -1.2726998521
 C         -1.9420514457        2.0290955966       -0.7218190462
 C         -2.1828477812        0.7527604761       -0.2342470303
 C         -1.1912745564       -0.2201484860       -0.3012125746
 H         -1.3945030492       -1.2075509571        0.0828467558
 N         -3.4293443250        0.4521992570        0.3418920941
 S         -4.8130047291        1.0435892783       -0.4236780705
 O         -4.7326892736        0.8046720208       -1.8476378355
 O         -5.0080054679        2.4160046791       -0.0281285498
 C         -6.0699758493        0.0168870888        0.3117682121
 C         -6.4829787544       -1.1243703919       -0.3494187646
 C         -7.4422492520       -1.9312099784        0.2420378706
 C         -7.9666085630       -1.5868133203        1.4788584832
 C         -7.5418241883       -0.4381673348        2.1300966300
 C         -6.5839257809        0.3737796394        1.5439474092
 H         -6.2300755206        1.2793873730        2.0083616872
 H         -7.9537755836       -0.1725369506        3.0902987704
 H         -8.7131648538       -2.2163397225        1.9368249750
 H         -7.7767183118       -2.8231577095       -0.2628603522
 H         -6.0550113578       -1.3482786961       -1.3134771512
 H         -3.5221367247       -0.5292753928        0.5648845516
 H         -2.7211418783        2.7725797265       -0.6702671290
 H         -0.5129188513        3.3083013354       -1.6599120992
 H          1.2478293506        1.5840749948       -1.7547895101
 H          1.4328410948       -1.0718953490       -1.9731274883
 C          0.8263053798       -2.2906589436       -0.3234647169
 C          0.0490662146       -3.2878419222       -1.1287067816
 C          1.5070652217       -3.5108296730       -0.8643406264
 H          1.7943069300       -4.2896704257       -0.1739927001
 H          2.2037916339       -3.3700285689       -1.6776893554
 H         -0.6637685765       -3.9194838686       -0.6202385535
 H         -0.2475854208       -3.0010232367       -2.1263359166
 H          0.6554507611       -2.2471702940        0.7464341007
