  62
        -98.94503550
 C          2.4512213350       -1.2040323762        0.0972457146
 C          3.2935335326       -0.5664673831       -0.8523774082
 C          4.0030351356        0.6311966981       -0.3940718539
 C          3.8415298120        1.0556662289        0.8719333809
 C          4.5039433003        2.2528254730        1.4974304720
 C          3.7815493821        3.5781029422        1.2185226577
 C          3.9226217203        4.1071888375       -0.2093710040
 H          3.5624350845        5.1378262874       -0.2050241048
 H          4.9776145208        4.1312691767       -0.4841272219
 C          3.1324769550        3.3142820140       -1.2600829062
 H          2.3727358450        2.7049705852       -0.7633903551
 H          2.6012591171        4.0084007327       -1.9153581478
 C          3.9882071781        2.4145794957       -2.1523360115
 H          4.6560078731        3.0302370839       -2.7588738093
 H          3.3220692580        1.8717442955       -2.8275962833
 C          4.8319051290        1.3847337392       -1.3898773125
 H          5.2244134102        0.6626346090       -2.1098061084
 H          5.6683982753        1.8761781670       -0.8938003690
 H          4.1932032960        4.3240313561        1.9024625572
 H          2.7221509464        3.4565227456        1.4586689658
 H          5.5371026200        2.3209633133        1.1556699591
 H          4.5038021820        2.0806467220        2.5759087228
 O          3.0437562813        0.4074279934        1.7594565877
 C          2.3103984810       -0.7131067305        1.3951105965
 O          1.6048658088       -1.1607797125        2.3228122202
 O          3.4488852176       -0.9871605535       -2.0290635647
 C          1.6706675135       -2.4163170840       -0.3883725315
 C          0.2569755500       -1.9898491149       -0.7031920477
 C         -0.1505383969       -1.8041557756       -2.0195928453
 C         -1.4232291623       -1.3424543543       -2.3059562889
 C         -2.3104613059       -1.0451778711       -1.2867146425
 C         -1.9076771142       -1.2158998033        0.0309259286
 C         -0.6411376355       -1.7019546094        0.3150837485
 H         -0.3301098424       -1.8074548338        1.3436756827
 N         -2.7926844164       -0.8707506775        1.0764926825
 S         -3.1925515565        0.7652327958        1.1444107991
 O         -2.1496888426        1.5883488924        0.5732871762
 O         -3.5369152499        1.0252606207        2.5254566625
 C         -4.6676106837        0.8721355723        0.1519640961
 C         -4.6806476224        1.6569147971       -0.9843268401
 C         -5.8414065271        1.7221849607       -1.7396870266
 C         -6.9617420863        1.0058144229       -1.3471222603
 C         -6.9328806892        0.2240825479       -0.2016209486
 C         -5.7761508719        0.1550025862        0.5581737923
 H         -5.7108192558       -0.4347105953        1.4571846730
 H         -7.8063509026       -0.3307124779        0.1007875340
 H         -7.8629039239        1.0576285274       -1.9374803026
 H         -5.8657098281        2.3296754369       -2.6300898124
 H         -3.7831777944        2.1915513996       -1.2520884402
 H         -2.4455983355       -1.1586583938        1.9818438171
 H         -3.2997410630       -0.6745225983       -1.5007880515
 H         -1.7252033457       -1.2055274631       -3.3330591382
 H          0.5494040404       -2.0038281934       -2.8181390642
 H          2.1520926293       -2.7060598723       -1.3319008941
 C          1.7255429979       -3.5955085947        0.5605174391
 C          1.3840972455       -4.9589759699        0.0408200896
 C          2.8024677628       -4.6226477471        0.3880020366
 H          3.2382353721       -5.0633223442        1.2720829664
 H          3.5057065642       -4.4788345180       -0.4192144600
 H          0.8428368545       -5.6345807765        0.6850362904
 H          1.1251412758       -5.0432958497       -1.0036980629
 H          1.4339951027       -3.3535439485        1.5741097624
