  62
        -98.94463697
 C         -1.8711668249       -1.4463001488       -0.0598460325
 C         -2.7283421539       -0.7726695880        0.8524249645
 C         -3.5761553841        0.2850772174        0.2940006578
 C         -3.5346343472        0.5424607009       -1.0255483361
 C         -4.3691033554        1.5567895515       -1.7597367990
 C         -3.7997883475        2.9816734710       -1.7253084166
 C         -3.9079007988        3.6904596838       -0.3746109135
 H         -4.9393083358        3.6437877483       -0.0239439191
 H         -3.6693703587        4.7423017585       -0.5444047552
 C         -2.9678354651        3.1366044553        0.7052938934
 H         -2.4667730315        3.9646593333        1.2112115858
 H         -2.1937605726        2.5272196697        0.2332021689
 C         -3.6583796986        2.2981988407        1.7807408596
 H         -4.3535898591        2.9239121774        2.3444667857
 H         -2.8951526185        1.9327613869        2.4723047171
 C         -4.4239273634        1.0845662084        1.2367762665
 H         -5.3407819310        1.4072922474        0.7436896013
 H         -4.6868298522        0.4381788229        2.0774970245
 H         -4.3478969557        3.5691139081       -2.4655519486
 H         -2.7536463152        2.9477493678       -2.0387309733
 H         -5.3813645546        1.5588222025       -1.3542699124
 H         -4.4126850505        1.2284575962       -2.8005793880
 O         -2.7144720247       -0.1332168647       -1.8706358353
 C         -1.8496294630       -1.1193234557       -1.4155130535
 O         -1.1411578399       -1.6030080421       -2.3229347278
 O         -2.7887189043       -1.0542374881        2.0779532246
 C         -0.9989523312       -2.5477170293        0.5209419953
 C          0.4192396527       -2.0811233401        0.7493677769
 C          0.9525315695       -2.0199174073        2.0316166014
 C          2.2556877868       -1.5994457858        2.2350267942
 C          3.0492716076       -1.2223025531        1.1668246937
 C          2.5178063981       -1.2613713881       -0.1162901187
 C          1.2158063904       -1.6950167383       -0.3193663698
 H          0.8084255783       -1.7190877224       -1.3190859543
 N          3.3010797068       -0.8466613515       -1.2070248817
 S          4.1887965037        0.5593460099       -1.0304981053
 O          4.2921347725        1.1201642147       -2.3593257621
 O          5.4402465060        0.2577636548       -0.3801457344
 C          3.2138985287        1.6218576931        0.0226869274
 C          3.7521351384        2.0971445433        1.2012500327
 C          2.9776334707        2.9091944984        2.0141412705
 C          1.6830935266        3.2291531643        1.6365770238
 C          1.1583789191        2.7481237456        0.4467554716
 C          1.9278231459        1.9360003174       -0.3700160935
 H          1.5429785965        1.5469764197       -1.3000994647
 H          0.1508198387        2.9991176216        0.1549530062
 H          1.0765499829        3.8564602827        2.2703792379
 H          3.3837739662        3.2862862562        2.9387508443
 H          4.7618856434        1.8202008149        1.4572863696
 H          2.8075859845       -0.8648097368       -2.0876622263
 H          4.0690115608       -0.9009863765        1.3045614956
 H          2.6583951537       -1.5640383480        3.2355298764
 H          0.3341508119       -2.2960545949        2.8729647636
 H         -1.4387419377       -2.7662880604        1.5032328943
 C         -1.0171317677       -3.8205251957       -0.3036436815
 C         -0.6547352338       -5.1169004204        0.3538793420
 C         -2.0749472128       -4.8483699113       -0.0425789911
 H         -2.4895371884       -5.3851752851       -0.8826802973
 H         -2.7920695047       -4.6404518044        0.7381955253
 H         -0.0900386579       -5.8411492801       -0.2128370184
 H         -0.4094240369       -5.0931341049        1.4047843555
 H         -0.7111860327       -3.6744188778       -1.3314484688
