  62
        -98.94299046
 C          1.9590514199        1.0709149806        0.3770242599
 C          2.5503669502        0.0316689108        1.1423709299
 C          3.9693628802       -0.2376484389        0.8892460098
 C          4.6371477100        0.5066281712       -0.0104909503
 C          6.0949893500        0.3800909015       -0.3605137304
 C          6.3961343002       -0.7049361785       -1.4032353503
 C          6.2757460206       -2.1431385785       -0.8978910302
 H          6.7226547906       -2.7883194285       -1.6568615602
 H          6.8635736407       -2.2576366083        0.0133823598
 C          4.8342044507       -2.6063200788       -0.6441678701
 H          4.1390269205       -1.9321903990       -1.1501903901
 H          4.6882559509       -3.5985036789       -1.0772907800
 C          4.4471169708       -2.6966121888        0.8321441700
 H          3.3973903809       -2.9962408291        0.8935445701
 H          5.0459384210       -3.4679236787        1.3218475600
 C          4.6111731906       -1.3842831287        1.6100431199
 H          5.6674680205       -1.1805188485        1.7854005898
 H          4.1100060407       -1.4930148588        2.5751684699
 H          5.7310163501       -0.5624693287       -2.2579628003
 H          7.4205426101       -0.5487640683       -1.7489845004
 H          6.4005103198        1.3452892715       -0.7699916005
 H          6.6728206401        0.1874290117        0.5439013496
 O          4.0430405497        1.5072043110       -0.7086595003
 C          2.6944910597        1.8027258007       -0.5563223502
 O          2.3069306694        2.7273170005       -1.2956982002
 O          1.9216365204       -0.6332360193        2.0096687100
 C          0.4844797999        1.3484202202        0.6234304000
 C         -0.3647685801        0.7007352500       -0.4444361299
 C         -0.3851366103        1.1767202299       -1.7522027599
 C         -1.1577870002        0.5509186396       -2.7126430498
 C         -1.9369600599       -0.5461323305       -2.3881214797
 C         -1.9214788797       -1.0321773604       -1.0869521196
 C         -1.1341912998       -0.4101400702       -0.1268664097
 H         -1.1200433596       -0.8107217201        0.8760468703
 N         -2.7018213394       -2.1475662206       -0.7261289195
 S         -3.7669500594       -1.9876026308        0.5563449706
 O         -3.0405964793       -1.8628227105        1.7930526905
 O         -4.6561154291       -3.1220731010        0.4428116307
 C         -4.6483242797       -0.4799351610        0.1957180405
 C         -5.7728344198       -0.5431533613       -0.6038909194
 C         -6.4112096001        0.6345958185       -0.9568795094
 C         -5.9087454603        1.8501962887       -0.5174809495
 C         -4.7781443603        1.8969805790        0.2833722404
 C         -4.1399637800        0.7216527192        0.6460603904
 H         -3.2613784799        0.7165516594        1.2698185703
 H         -4.3854704405        2.8412169291        0.6248712503
 H         -6.4014459706        2.7674304185       -0.7987490696
 H         -7.2936405701        0.6018773083       -1.5753771393
 H         -6.1316639796       -1.5096549614       -0.9189871193
 H         -3.1729098994       -2.5819644908       -1.5075092194
 H         -2.5440954699       -1.0302662607       -3.1381584396
 H         -1.1593319004        0.9262281696       -3.7246875898
 H          0.2313422795        2.0224993600       -2.0132043600
 H          0.2587478501        0.8464631902        1.5746852601
 C          0.1702621595        2.8232362202        0.7748687899
 C         -1.0303894505        3.2366446999        1.5696381600
 C          0.3462165395        3.4712918903        2.1138598899
 H          0.7254634493        4.4813934104        2.1509276498
 H          0.6856173897        2.8487089104        2.9293181299
 H         -1.6007390307        4.0888652198        1.2342053800
 H         -1.6229143003        2.4574679598        2.0255509701
 H          0.4279843593        3.4136048802       -0.0940137601
