  62
        -98.93534708
 C          1.9610108351        0.9464333076        0.4041716787
 C          2.6734032910       -0.1344494852        0.9861165182
 C          4.1036279897       -0.2285226455        0.6684660303
 C          4.6672728104        0.6997435498       -0.1246889133
 C          6.1195669257        0.7981285502       -0.5103851590
 C          6.6760695451       -0.3533718275       -1.3695192157
 C          7.3457178510       -1.4749122983       -0.5658266184
 H          8.2422246193       -1.8008952131       -1.0971093095
 H          7.6785829235       -1.0711149605        0.3911323728
 C          6.4921202860       -2.7235000316       -0.3239752690
 H          6.4731339747       -3.3250752812       -1.2356546231
 H          6.9807850460       -3.3178046594        0.4512203324
 C          5.0412310134       -2.4715854020        0.0874219472
 H          4.6107463218       -3.4192319712        0.4176470459
 H          4.4605189618       -2.1576619900       -0.7834204604
 C          4.8599893074       -1.4139119543        1.1934139601
 H          5.8248686625       -1.1066943525        1.5944308435
 H          4.2636130099       -1.8274084433        2.0093849265
 H          7.4238283882        0.0816775559       -2.0344613884
 H          5.8812561637       -0.7560582470       -1.9968239359
 H          6.2089336599        1.7333465900       -1.0667990929
 H          6.7171994122        0.8927119397        0.3991427458
 O          3.9535391075        1.7266500025       -0.6559236845
 C          2.5931267340        1.8736533606       -0.4250251508
 O          2.0981907096        2.8566880802       -1.0095270730
 O          2.1373363740       -0.9784157441        1.7546367035
 C          0.4842302148        1.0459431414        0.7445112405
 C         -0.3914150537        0.4646684647       -0.3400854208
 C         -0.3705448185        0.9615846352       -1.6398577078
 C         -1.1903844164        0.4165810727       -2.6105328430
 C         -2.0616527379       -0.6140333099       -2.3018175907
 C         -2.0950548200       -1.1131841495       -1.0060679424
 C         -1.2543912136       -0.5788158646       -0.0381779217
 H         -1.2844964025       -0.9868787860        0.9608687422
 N         -2.9776553592       -2.1527981571       -0.6526208020
 S         -4.0747162573       -1.8718248030        0.5812380053
 O         -3.3763682324       -1.6593021239        1.8220405189
 O         -4.9849579317       -2.9936966667        0.5354635245
 C         -4.9230428669       -0.3828933091        0.0832663561
 C         -4.3250121435        0.8406316506        0.3126391202
 C         -4.9529683806        1.9874319502       -0.1471246914
 C         -6.1610764804        1.8932546411       -0.8207450385
 C         -6.7507100199        0.6573138072       -1.0392217335
 C         -6.1243764649       -0.4938050409       -0.5895535888
 H         -6.5466503930       -1.4750139200       -0.7349482759
 H         -7.6919713579        0.5873889603       -1.5602234729
 H         -6.6451425259        2.7891517757       -1.1762273022
 H         -4.4919673701        2.9474042829        0.0211076424
 H         -3.3868725578        0.8813247983        0.8414078002
 H         -3.4577095444       -2.5636715857       -1.4414213335
 H         -2.7067090222       -1.0329393180       -3.0593739570
 H         -1.1584353138        0.8056465688       -3.6168708806
 H          0.3010120448        1.7709983749       -1.8810417878
 H          0.3576531254        0.4203968969        1.6391596807
 C          0.0328707472        2.4540253299        1.0821039311
 C         -1.1378297576        2.6390806972        1.9985681995
 C          0.2448451569        2.9762428078        2.4695829391
 H          0.5126955274        4.0146907881        2.5929269481
 H          0.7146137637        2.3167438616        3.1851196810
 H         -1.8241666611        3.4486604529        1.8036734224
 H         -1.6033182287        1.7524752103        2.4049838691
 H          0.1532938399        3.1527931647        0.2647205180
