  62
        -98.94044955
 C         -2.4792750029       -1.2205622307       -0.0041143864
 C         -2.4321079669       -0.0030906887       -0.7244408290
 C         -3.7305161678        0.6380394539       -0.9800699921
 C         -4.8574541002        0.0413950076       -0.5500269416
 C         -6.2380741165        0.6128908480       -0.6902468140
 C         -6.6147816133        1.4581661466        0.5347702112
 C         -5.5476431322        2.4772926052        0.9343108022
 H         -5.9341706503        3.0342302811        1.7905574446
 H         -4.6548613963        1.9462794070        1.2727012766
 C         -5.1581738879        3.4585439036       -0.1800223196
 H         -5.1131079730        4.4656184525        0.2397250077
 H         -5.9261019662        3.4640592042       -0.9543059824
 C         -3.7964210629        3.1828120476       -0.8206703236
 H         -3.0355908142        3.0838386637       -0.0418439757
 H         -3.5261079435        4.0477838884       -1.4324007829
 C         -3.7218917491        1.9443896887       -1.7228510624
 H         -4.5271207496        1.9757544554       -2.4597387716
 H         -2.7664107286        1.9788012038       -2.2550183780
 H         -7.5522673964        1.9749748147        0.3221985158
 H         -6.7802589917        0.7868332312        1.3804708812
 H         -6.2843336058        1.2196045550       -1.5923532807
 H         -6.9445338024       -0.2137004988       -0.7815197493
 O         -4.8626465785       -1.1415222151        0.1162879662
 C         -3.6786562361       -1.7941722684        0.4172020446
 O         -3.8229554253       -2.8561362203        1.0558263211
 H          1.4847354147       -1.3939197533       -0.1117542382
 C          1.0715020245       -0.8719190665        0.7339836076
 C         -0.2585874532       -1.0384145161        1.0852830965
 C         -0.7493006160       -0.3482243764        2.1912147537
 C          0.0646524008        0.5061025807        2.9081736676
 C          1.3850641885        0.6907144692        2.5373072306
 C          1.8908910577       -0.0067276711        1.4471826383
 N          3.2464101427        0.1261133554        1.0914906441
 S          3.6952734980        0.2020110394       -0.5350790684
 O          3.0336179054        1.3073068583       -1.1922820640
 O          3.5313863965       -1.0975209525       -1.1341006411
 C          5.4332334884        0.5564331662       -0.3435466792
 C          6.2888188043       -0.4842149566       -0.0353913701
 C          7.6357940523       -0.2132717959        0.1445322507
 C          8.1026722735        1.0864604707        0.0147596565
 C          7.2326971719        2.1201571358       -0.2973472336
 C          5.8838958450        1.8558850098       -0.4773076734
 H          5.1722762134        2.6257790407       -0.7295430821
 H          7.5988602406        3.1288490294       -0.4013518268
 H          9.1516750447        1.2946318636        0.1546274679
 H          8.3158044611       -1.0146927656        0.3843810393
 H          5.8819856332       -1.4784622906        0.0468541630
 H          3.6955335049        0.8778906842        1.5987665569
 H          2.0188170578        1.3673868065        3.0906522265
 H         -0.3327087141        1.0405939948        3.7582082841
 H         -1.7847945566       -0.4862269881        2.4737044406
 C         -1.1912419029       -1.9519387388        0.3275144091
 H         -1.4739627525       -2.7814611950        0.9928671779
 C         -0.5799585964       -2.5284251092       -0.9322713304
 C          0.2593074728       -3.7675791436       -0.8645497424
 C         -1.1091086219       -3.8213757850       -1.4728488512
 H         -1.1964523228       -3.9353727063       -2.5429461540
 H         -1.8995468261       -4.3027293753       -0.9151565438
 H          0.4001016945       -4.2215489000        0.1048009728
 H          1.1187114235       -3.8402066489       -1.5142769241
 H         -0.3011950093       -1.7633151152       -1.6492975370
 O         -1.3630387108        0.5248308828       -1.1311732937
