  62
        -98.93508902
 C          0.7819518303        1.3469988732        0.8204902355
 C          1.0111106545        0.8543145765       -0.4846357335
 C          2.0187428958       -0.2207577651       -0.6154728371
 C          2.6557753582       -0.6700941913        0.4814807064
 C          3.7688782319       -1.6826409613        0.6639045388
 C          4.3573933576       -2.4088303113       -0.5417763221
 C          5.2939880063       -1.5480189976       -1.3934461307
 H          6.2352343776       -1.4302886562       -0.8507060543
 H          5.5109818910       -2.0810740290       -2.3212420302
 C          4.7868521336       -0.1474192230       -1.7299244498
 H          4.5705338909        0.3980269882       -0.8096421352
 H          5.5924095016        0.3872446924       -2.2403529912
 C          3.5567890295       -0.0994499791       -2.6321100518
 H          3.3570024791        0.9483875320       -2.8733271306
 H          3.7645315822       -0.6222208730       -3.5683028550
 C          2.2788059577       -0.6893909047       -2.0194708140
 H          1.4273208108       -0.3459985835       -2.6163170165
 H          2.2910697186       -1.7756351051       -2.0702597405
 H          3.5632242464       -2.8374305834       -1.1468683935
 H          4.9446620060       -3.2453756475       -0.1540887673
 H          4.5732612894       -1.1564394460        1.1891064053
 H          3.3832899895       -2.4215321729        1.3732076155
 O          2.3380146889       -0.2163638498        1.7302232078
 C          1.4040404167        0.7799262035        1.9337272588
 O          1.2155816866        1.0699630451        3.1311829000
 H         -1.6467362469        0.2822574572        0.9369422843
 C         -2.1074554228        1.0894037216        0.3845222137
 C         -1.4647805659        2.3210092544        0.3232265743
 C         -2.0689689503        3.3469965605       -0.3921603711
 C         -3.2842986932        3.1436785488       -1.0221473707
 C         -3.9157335387        1.9159767629       -0.9610426933
 C         -3.3147094286        0.8781421295       -0.2597005532
 N         -3.9250931196       -0.3924621095       -0.1689537164
 S         -3.0909459436       -1.6734979467       -0.8616810115
 O         -2.4351586352       -1.2820012891       -2.0880311004
 O         -4.0828038546       -2.7222075215       -0.9922548600
 C         -1.8932518707       -2.1843444482        0.3476562564
 C         -0.6144152361       -2.4821619597       -0.0743465852
 C          0.2987054209       -2.9691285447        0.8470799275
 C         -0.0764695706       -3.1300830276        2.1710865488
 C         -1.3644427601       -2.8180731507        2.5808971200
 C         -2.2888630012       -2.3520280188        1.6603570627
 H         -3.3012507287       -2.1095807589        1.9383226512
 H         -1.6493046635       -2.9410802230        3.6134577700
 H          0.6390339017       -3.4992847558        2.8890255682
 H          1.2960530047       -3.2200678643        0.5252275167
 H         -0.3588764192       -2.3179262369       -1.1090973059
 H         -4.8795868904       -0.4037945153       -0.5039168307
 H         -4.8607312376        1.7538671343       -1.4580820633
 H         -3.7416912765        3.9509579150       -1.5741140060
 H         -1.5853406369        4.3064682564       -0.4708028076
 C         -0.1778814392        2.4893252019        1.0942195377
 H         -0.4274270253        2.3943128964        2.1646839200
 C          0.4496039218        3.8670370362        0.9192644234
 C          1.9356442534        4.0609184214        0.9515801922
 C          1.1842375953        4.2470720280       -0.3303485139
 H          1.0656108727        5.2500371284       -0.7139238733
 H          1.2776824627        3.4939206440       -1.0967198223
 H          2.3245810712        4.9341531226        1.4537944048
 H          2.5572800789        3.1839246733        1.0593230681
 H         -0.1379243787        4.6458768337        1.3952497361
 O          0.4221100079        1.2909936122       -1.5072262813
