  62
        -98.93816986
 C         -1.9183739352       -0.1756911577        0.0561262062
 C         -2.9939804482       -0.9110076472        0.6076637112
 C         -4.2859862734       -0.2121123095        0.7014328416
 C         -4.3747936035        1.0645242489        0.2905786471
 C         -5.5714879276        1.9818650621        0.3330521824
 C         -6.9280156813        1.3977664425       -0.0852240749
 C         -6.8623840684        0.3202466052       -1.1773885615
 H         -7.5656265263        0.5772571261       -1.9717973022
 H         -5.8654624838        0.2967856967       -1.6209566770
 C         -7.2254032639       -1.0746480737       -0.6622389568
 H         -7.5167755228       -1.6973220322       -1.5115666580
 H         -8.0945360888       -0.9899960642       -0.0062220772
 C         -6.1099148431       -1.8121603728        0.0774032874
 H         -5.3281882822       -2.1044492187       -0.6289429096
 H         -6.5306786968       -2.7330462883        0.4882204995
 C         -5.4380996527       -1.0267139841        1.2156951940
 H         -6.1588393346       -0.4130278372        1.7503636824
 H         -5.0085086054       -1.7496926378        1.9143494251
 H         -7.4330451165        0.9869850472        0.7879021316
 H         -7.5361973980        2.2337787153       -0.4348599656
 H         -5.6533235933        2.3869202230        1.3459106096
 H         -5.3127611274        2.8145595521       -0.3254561855
 O         -3.3067180923        1.7412459715       -0.2195465405
 C         -2.0617948895        1.1466639779       -0.3601199252
 O         -1.1944242971        1.8895800704       -0.8571717371
 O         -2.8780587407       -2.0974932862        1.0154143269
 C         -0.5663094279       -0.8543460281       -0.0835825473
 C          0.4598525479       -0.0925112772        0.7161847559
 C          0.2967351243       -0.0180235573        2.0983058195
 C          1.1817633474        0.7008259197        2.8765006960
 C          2.2545451164        1.3542156757        2.2942513064
 C          2.4272577253        1.2871250614        0.9173726661
 C          1.5363861717        0.5593686866        0.1376565742
 H          1.6818138905        0.5451115733       -0.9286722641
 N          3.4907215845        1.9678300600        0.3052491572
 S          4.4025755682        1.2714832117       -0.9069988793
 O          5.5468886657        2.1456856840       -1.0412761099
 O          3.6088792694        1.0712030848       -2.0917118926
 C          4.9213740813       -0.2960667871       -0.2325755562
 C          4.1637032723       -1.4254111885       -0.4673834269
 C          4.5507612365       -2.6225568530        0.1145292607
 C          5.6802456807       -2.6695893951        0.9167871239
 C          6.4322031029       -1.5260990123        1.1410669063
 C          6.0488052251       -0.3259108905        0.5655248502
 H          6.6104556990        0.5836817398        0.7040508594
 H          7.3127580313       -1.5667108139        1.7617642424
 H          5.9771717736       -3.6037320933        1.3668437486
 H          3.9679327939       -3.5125822837       -0.0615249745
 H          3.2943235900       -1.3528762190       -1.0993200840
 H          4.0789931021        2.4837521212        0.9428109568
 H          2.9431258800        1.9249115571        2.8986945187
 H          1.0392318242        0.7536302317        3.9453028914
 H         -0.5457181558       -0.5239301221        2.5498997562
 H         -0.6935066326       -1.8458828951        0.3747940072
 C         -0.2100096697       -1.0376755011       -1.5429090511
 C          0.7127861777       -2.1442542834       -1.9546001985
 C         -0.7489656666       -2.2288722849       -2.2747111218
 H         -1.0628737758       -2.1051935710       -3.3004025238
 H         -1.3563433715       -2.9231662825       -1.7124643997
 H          1.4051576559       -1.9623331852       -2.7635221706
 H          1.0933116130       -2.7894662720       -1.1770245188
 H         -0.1607214591       -0.1021121166       -2.0892375363
