  62
        -98.94282365
 C         -1.5174445361       -1.2749007861        0.6718408645
 C         -1.9285531796       -0.8830071705       -0.6265246843
 C         -2.6689943484        0.3834891725       -0.7043174464
 C         -2.8968574985        1.1013044704        0.4094735753
 C         -3.6771187773        2.3851794036        0.4907344717
 C         -2.8540846340        3.6385809656        0.1661542294
 C         -2.4774652774        3.8096681320       -1.3058018934
 H         -3.3756816123        3.7380872230       -1.9199632951
 H         -2.0854109079        4.8217546873       -1.4205892297
 C         -1.4250080574        2.8129523081       -1.8118794539
 H         -0.6650135042        3.3451706309       -2.3874119293
 H         -0.9149717522        2.3541703165       -0.9616758910
 C         -1.9807330947        1.7079712197       -2.7102766157
 H         -2.3730087344        2.1445342524       -3.6315263450
 H         -1.1594215951        1.0375423244       -2.9767995348
 C         -3.0860237680        0.8649370610       -2.0609031394
 H         -4.0100662924        1.4390719487       -1.9961522287
 H         -3.2612289578       -0.0128811188       -2.6876585980
 H         -1.9474109459        3.6187490049        0.7723230908
 H         -3.4459700048        4.5045800154        0.4713589183
 H         -4.5396980508        2.3292511789       -0.1739704364
 H         -4.0364091064        2.4660902198        1.5190448633
 O         -2.4434424409        0.7141880419        1.6321804393
 C         -1.7236825182       -0.4597742265        1.7869042195
 O         -1.3248044319       -0.6627521313        2.9521839404
 H          1.1323062682       -0.7253109041        0.4872628479
 C          1.2801997826       -1.5679657651       -0.1724004350
 C          0.3913115547       -2.6347940625       -0.1162627926
 C          0.5834877477       -3.7063028934       -0.9770526469
 C          1.6409987588       -3.7005890271       -1.8702583195
 C          2.5348490477       -2.6467523413       -1.9075705836
 C          2.3512964756       -1.5684091849       -1.0483872309
 N          3.2301665813       -0.4751594939       -1.0620229383
 S          3.6571493460        0.2937752523        0.3615306526
 O          4.9714918022        0.8388741105        0.0932199567
 O          3.5548468318       -0.5917746040        1.4968833739
 C          2.5177899251        1.6536838502        0.5141852329
 C          2.6172961912        2.6812894387       -0.4040311195
 C          1.7879361752        3.7822526487       -0.2725212630
 C          0.8746015266        3.8382960760        0.7696734105
 C          0.7777355390        2.7945902183        1.6768771785
 C          1.6093794218        1.6921747765        1.5525591714
 H          1.5624852629        0.8695962933        2.2508486725
 H          0.0610982093        2.8239581507        2.4836519033
 H          0.2377383936        4.7023993297        0.8767879812
 H          1.8560961285        4.5951383640       -0.9770462641
 H          3.3515997296        2.6064903367       -1.1886034607
 H          4.0168029741       -0.5696171944       -1.6874859455
 H          3.3639671722       -2.6502428470       -2.5989368703
 H          1.7751237204       -4.5341897524       -2.5430683326
 H         -0.1054859324       -4.5347064708       -0.9661573506
 C         -0.7233027097       -2.5493040611        0.8980670658
 H         -0.2522701989       -2.4195732283        1.8877239805
 C         -1.5665925450       -3.8122484432        0.9869155744
 C         -2.9953458893       -3.7553203716        1.4373686138
 C         -2.6703173742       -4.1146088301        0.0201946398
 H         -2.8100704455       -5.1397722080       -0.2907643872
 H         -2.8658807532       -3.3916782521       -0.7550882249
 H         -3.3555176331       -4.5296260394        2.0981803111
 H         -3.4181645896       -2.7808452497        1.6356174079
 H         -0.9868931710       -4.6581489157        1.3445794285
 O         -1.7051313027       -1.5471680152       -1.6703497036
