  62
        -98.93954967
 C         -1.2927456402       -1.5698157404       -0.3710724809
 C         -2.5555539603       -1.5666260409        0.2716698291
 C         -3.4375556903       -0.4302994107       -0.0308819902
 C         -3.0030865803        0.5281133198       -0.8695847396
 C         -3.7411176504        1.7953804900       -1.1972589189
 C         -3.6126440904        2.7948063493       -0.0297480382
 C         -4.9313542304        3.1158114588        0.6739435320
 H         -4.6890954104        3.6523576183        1.5938366123
 H         -5.5160546804        3.7899796692        0.0444911224
 C         -5.8146884704        1.9127025286        1.0175910512
 H         -6.5628685304        2.2614201181        1.7327485014
 H         -6.3610842004        1.5917312791        0.1293750310
 C         -5.0920797203        0.6982187082        1.6146203605
 H         -4.1637466804        1.0013081180        2.0992436206
 H         -5.7306749303        0.2723013977        2.3913265202
 C         -4.7983686103       -0.4310257411        0.6091860598
 H         -5.5670906603       -0.4352328307       -0.1686930003
 H         -4.8591077003       -1.3884538015        1.1350990092
 H         -2.9054448904        2.3845577189        0.6937883215
 H         -3.1878363804        3.7318715495       -0.3928511377
 H         -3.2981167104        2.2060945106       -2.1045402386
 H         -4.7871072304        1.5706527501       -1.3938530690
 O         -1.7866370403        0.4888131603       -1.4689336297
 C         -0.9000014503       -0.5528898799       -1.2422073803
 O          0.1688081197       -0.4534533394       -1.8722098702
 O         -2.9278231702       -2.4749545314        1.0620451385
 C         -0.3285393802       -2.7003562806       -0.0472525216
 C          0.8125826498       -2.0923446810        0.7278351288
 C          0.6635700897       -1.8607610519        2.0925056089
 C          1.6454668797       -1.2034392523        2.8101312793
 C          2.7882858697       -0.7437039618        2.1779466496
 C          2.9392408797       -0.9607067510        0.8152909695
 C          1.9692755797       -1.6521521806        0.1029574890
 H          2.1006368298       -1.8061377799       -0.9559008311
 N          4.0789214597       -0.4549973005        0.1517232398
 S          4.2631593896        1.2108865694        0.1851505108
 O          5.2497548096        1.5080649401       -0.8288623690
 O          4.5972020296        1.6125040586        1.5291085611
 C          2.6806531196        1.8909939697       -0.2757780688
 C          2.4232527796        2.1237958605       -1.6111096486
 C          1.1839167896        2.6188848707       -1.9792477383
 C          0.2236822996        2.8614667400       -1.0107872682
 C          0.4945305496        2.6141619392        0.3252985617
 C          1.7344115996        2.1247046790        0.7013032014
 H          1.9820776896        1.9268284684        1.7315220713
 H         -0.2585175604        2.7965580287        1.0761067918
 H         -0.7455839904        3.2352948602       -1.2998635579
 H          0.9653385096        2.8011804713       -3.0190519482
 H          3.1969447996        1.9228603910       -2.3348932687
 H          4.1351445597       -0.7668789399       -0.8083059604
 H          3.5517233897       -0.2021512022        2.7128055199
 H          1.5180985597       -1.0378885929        3.8693502394
 H         -0.2429452402       -2.1900502622        2.5809687287
 H         -0.8809981902       -3.3758250110        0.6189575780
 C          0.0977966898       -3.4703513398       -1.2785584821
 C          0.7737124799       -4.7977835199       -1.1130252629
 C         -0.6270019601       -4.7303893496       -1.6409825029
 H         -0.7961010601       -4.9444892190       -2.6856899030
 H         -1.4330431401       -5.0470722800       -0.9955101231
 H          1.5684132199       -5.0620622894       -1.7938948331
 H          0.9195504299       -5.1593767805       -0.1063505731
 H          0.4186010698       -2.8358586593       -2.0955001817
