  62
        -98.93906508
 C          2.2076822777        1.1022198690        0.5291777163
 C          2.3370932143        0.2370690873       -0.5817315344
 C          3.1602561677       -0.9706335392       -0.3813563285
 C          3.7205884678       -1.1994398789        0.8209899179
 C          4.5710022388       -2.3477055209        1.3239701190
 C          5.2044559912       -3.3374980586        0.3496695197
 C          6.2937893491       -2.7474438876       -0.5453173821
 H          6.6002616755       -3.5147775853       -1.2594731587
 H          7.1598967108       -2.5055099170        0.0756948268
 C          5.9079512186       -1.4834177662       -1.3095104238
 H          6.7733296110       -1.1741805677       -1.9018074489
 H          5.6970046880       -0.6776045835       -0.6035960984
 C          4.7228472670       -1.6307720443       -2.2619536295
 H          4.9031412102       -2.4594394119       -2.9493719473
 H          4.6593084505       -0.7133802074       -2.8531204592
 C          3.3548716087       -1.8407370593       -1.5893528154
 H          3.1911905576       -2.8866684947       -1.3398168661
 H          2.5770559300       -1.5513690780       -2.3026095804
 H          4.4373680345       -3.8190158420       -0.2498371105
 H          5.6661891414       -4.1194664236        0.9588275154
 H          5.3588793657       -1.8893011567        1.9301793793
 H          3.9342589744       -2.9066508490        2.0189629469
 O          3.5315056984       -0.3520716255        1.8761648137
 C          2.7844825501        0.8072173564        1.7617001936
 O          2.7038113884        1.4738130200        2.8139546679
 H         -0.1411310369        0.4908590218        1.4689036543
 C         -0.6742857059        1.0272136708        0.6923085858
 C         -0.0266810374        2.0547014191        0.0173686640
 C         -0.7218445278        2.7343907715       -0.9738726430
 C         -2.0229304143        2.3790601591       -1.2860783310
 C         -2.6602601141        1.3510698158       -0.6164973884
 C         -1.9759667973        0.6675586081        0.3802956452
 N         -2.6186030328       -0.3689371983        1.0809947702
 S         -3.3781004653       -1.5764073402        0.1930225768
 O         -3.3845852018       -2.7327383845        1.0634150240
 O         -2.7686218803       -1.7509114798       -1.1046319909
 C         -5.0461730316       -0.9794202894        0.0135813685
 C         -5.7564846928       -0.6806537513        1.1598331797
 C         -7.0572240794       -0.2185323205        1.0394447600
 C         -7.6234318694       -0.0666560024       -0.2176475889
 C         -6.8984729128       -0.3747545069       -1.3585763244
 C         -5.5962177922       -0.8366456844       -1.2451320931
 H         -4.9923332535       -1.0843834576       -2.1037168124
 H         -7.3403281931       -0.2569041326       -2.3349184128
 H         -8.6359614167        0.2935440459       -0.3086201623
 H         -7.6241183392        0.0216647443        1.9244347512
 H         -5.2807699573       -0.8171097151        2.1166178110
 H         -2.0486463546       -0.7757054503        1.8087707848
 H         -3.6708845077        1.0679636655       -0.8610499395
 H         -2.5483803406        2.9112540211       -2.0642486175
 H         -0.2418798733        3.5361226084       -1.5103227408
 C          1.3954149096        2.3786727882        0.4082891860
 H          1.3779683984        2.8231772116        1.4145235150
 C          2.0798608671        3.3423135802       -0.5388421709
 C          1.9239306145        4.8213600747       -0.3569704886
 C          3.2279349359        4.1595216930       -0.0302586151
 H          4.0717786087        4.3261286866       -0.6828391777
 H          3.4979402359        4.0400105531        1.0092378888
 H          1.3107561821        5.1623998632        0.4633197626
 H          1.8755167519        5.4467946146       -1.2355471375
 H          2.1516187330        2.9518254295       -1.5474781539
 O          1.7892701210        0.4557515234       -1.6934119953
