  62
        -98.94189663
 C         -0.0684283296       -2.1096074405       -0.4529468874
 C         -0.7011749700       -1.0059241110       -1.0726626979
 C         -2.1573563899       -0.8813040110       -0.8625434775
 C         -2.7835877695       -1.7487188606       -0.0511528567
 C         -4.2293460494       -1.7428343906        0.3625005938
 C         -4.4120762190       -0.9550003398        1.6709314134
 C         -4.6578406193        0.5419142601        1.4917799825
 H         -5.6503620694        0.6936252997        1.0608958928
 H         -4.6587986590        0.9914786107        2.4876957123
 C         -3.6300392997        1.2777141797        0.6276691917
 H         -3.7005204097        2.3412625798        0.8712851211
 H         -2.6212118495        0.9564522400        0.8988854215
 C         -3.8669359202        1.0948366787       -0.8791470281
 H         -4.8623250102        0.6767850985       -1.0308383675
 H         -3.8663336705        2.0733719284       -1.3644763087
 C         -2.8276671403        0.2364074484       -1.6143412379
 H         -2.0028794205        0.8726618883       -1.9491269786
 H         -3.2894590606       -0.1830591222       -2.5148457375
 H         -5.2592049387       -1.3734932295        2.2187915539
 H         -3.5185149988       -1.1059418893        2.2828819232
 H         -4.8572066497       -1.3430346611       -0.4282646262
 H         -4.5065802592       -2.7839618605        0.5407017346
 O         -2.1284375791       -2.7654138401        0.5746141037
 C         -0.7777453692       -2.9746546501        0.3845998534
 O         -0.3218454188       -3.9598746996        1.0020115138
 O         -0.1050030503       -0.1474567513       -1.7769692687
 C          1.4192605104       -2.4115006704       -0.5673010878
 C          2.1826998607       -1.6303182696        0.4751771515
 C          3.0557083811       -2.2540998490        1.3582077815
 C          3.7072021213       -1.5211930483        2.3348591509
 C          3.4774673612       -0.1633402182        2.4685666101
 C          2.6054570808        0.4671725711        1.5887651800
 C          1.9936933205       -0.2607908496        0.5808559607
 H          1.3284608102        0.2386079999       -0.1032056194
 N          2.3224446206        1.8376457711        1.6884341892
 S          0.7583770905        2.3609693407        1.3762804295
 O          0.6390386906        3.6020609312        2.1178415687
 O         -0.2181744693        1.3482836608        1.7070422005
 C          0.7238645698        2.7561719397       -0.3589581808
 C         -0.5068011004        3.0281802891       -0.9203188805
 C         -0.5718342610        3.3822120583       -2.2579136607
 C          0.5907264288        3.4594307280       -3.0076033012
 C          1.8190168390        3.1883567685       -2.4268918914
 C          1.8917068595        2.8365798394       -1.0883911812
 H          2.8322247697        2.6097654998       -0.6138063214
 H          2.7222166988        3.2429362183       -3.0135717318
 H          0.5373163583        3.7261901273       -4.0514893613
 H         -1.5285182712        3.5879080979       -2.7118915905
 H         -1.3876469402        2.9428646094       -0.3042841601
 H          2.7196482509        2.3054395817        2.4900616388
 H          3.9599354614        0.4027888723        3.2508894596
 H          4.3836757816       -2.0160244477        3.0152454309
 H          3.2050675812       -3.3216727490        1.2908405222
 H          1.5267892506       -3.4790380702       -0.3296642171
 C          1.9929450999       -2.1662227312       -1.9489567581
 C          3.2405053598       -2.8884448213       -2.3563594981
 C          1.9257702697       -3.2543616518       -2.9760204174
 H          1.7414910293       -2.9801223725       -4.0036265175
 H          1.4666879399       -4.1883239917       -2.6851012267
 H          3.9644152696       -2.3629344815       -2.9596537187
 H          3.6751257102       -3.5783207608       -1.6488897178
 H          1.8612502196       -1.1488201914       -2.2916097087
