  62
        -98.93061730
 C         -1.4962755474       -0.8516406799       -0.3805847316
 C         -2.8209936759       -1.3550252519       -0.4058738550
 C         -3.8722749877       -0.5492073271        0.2425485322
 C         -3.5195142293        0.6010735401        0.8451097348
 C         -4.4036227405        1.6023837742        1.5399740597
 C         -5.1996032887        2.4732822743        0.5548672248
 C         -5.8339698742        1.7127441622       -0.6065500166
 H         -6.2752140260        2.4486098252       -1.2840897457
 H         -5.0532272556        1.1893254799       -1.1613465458
 C         -6.9291960257        0.7232650038       -0.2158378287
 H         -7.7233689819        1.2571393949        0.3109835376
 H         -7.3539772522        0.3274884951       -1.1420331336
 C         -6.4857793926       -0.4613930093        0.6455265819
 H         -7.2974539881       -1.1948044997        0.6318658227
 H         -6.3555833435       -0.1661391598        1.6832203666
 C         -5.2389549746       -1.1831073740        0.1436538642
 H         -5.1567239007       -2.1428946548        0.6681392948
 H         -5.3762463192       -1.4450174264       -0.9117895777
 H         -5.9737890264        3.0043237454        1.1113090484
 H         -4.5174706198        3.2151733818        0.1328886362
 H         -5.0682035377        1.0962056632        2.2337805681
 H         -3.7447891695        2.2499989577        2.1224207517
 O         -2.2315515547        1.0402206830        0.8614655574
 C         -1.1910028578        0.3528416517        0.2555313604
 O         -0.0922726119        0.9223425669        0.3696873633
 H          1.8684697040       -0.3058327229       -0.2754608221
 C          1.7532671832       -1.2645195261        0.1946582608
 C          0.6615444595       -2.0690473807       -0.0942972455
 C          0.5340155909       -3.2748898966        0.5950288536
 C          1.4673556702       -3.6633096326        1.5364235148
 C          2.5650246339       -2.8646627344        1.8036854775
 C          2.7021051874       -1.6585081608        1.1290664392
 N          3.7851500505       -0.8096359369        1.3923247218
 S          4.4694312667        0.0863040458        0.1600869618
 O          4.4371126028       -0.6339737537       -1.0922884495
 O          5.7892037124        0.4234567227        0.6547343944
 C          3.5018995615        1.5746109278        0.0579500927
 C          3.2238344294        2.1121098832       -1.1821933406
 C          2.5017517644        3.2925632574       -1.2530227639
 C          2.0738832060        3.9101095898       -0.0890526533
 C          2.3645305486        3.3577429389        1.1483425771
 C          3.0885315216        2.1802752811        1.2266875178
 H          3.3241845373        1.7192092148        2.1715156178
 H          2.0211573213        3.8367815938        2.0512297040
 H          1.5033994609        4.8239387662       -0.1468866932
 H          2.2677138742        3.7188036101       -2.2156955270
 H          3.5591822977        1.5895984588       -2.0644004480
 H          4.4736272079       -1.1683399821        2.0368993022
 H          3.3033426428       -3.1660992155        2.5312875624
 H          1.3459953896       -4.5996454252        2.0599182324
 H         -0.3194984742       -3.9061886437        0.3900548811
 C         -0.4303390444       -1.7005205214       -1.0649490212
 H         -0.9622623223       -2.6368411479       -1.2949198688
 C         -0.0390159109       -1.1272774011       -2.4238750820
 C          0.6067620839        0.2066295983       -2.6468663819
 C          1.3597711461       -1.0514268189       -2.9585401947
 H          1.5129919458       -1.3055410987       -3.9976107154
 H          2.1851581321       -1.3281508814       -2.3204618503
 H          0.2456047089        0.8059691970       -3.4711004500
 H          0.8840431411        0.7900014934       -1.7840971059
 H         -0.8002738986       -1.3838728483       -3.1571745429
 O         -3.1270563711       -2.4470762172       -0.9596043997
