  62
        -98.94298439
 C          1.9446376906        0.5699467597        0.0262975693
 C          2.5284794026       -0.6931184468        0.3085024365
 C          3.8801790214       -0.9182426288       -0.2134633509
 C          4.4812511493        0.0421271199       -0.9385906317
 C          5.8428496371       -0.0448517187       -1.5729575073
 C          6.9992370922        0.2975696561       -0.6238163858
 C          7.3011415903       -0.7583582083        0.4401462322
 H          7.4223869670       -1.7307167890       -0.0383064171
 H          8.2603400916       -0.4949411852        0.8902319887
 C          6.2458351343       -0.8570226022        1.5506008017
 H          5.6246855848        0.0415768670        1.5440333984
 H          6.7422590087       -0.8955042830        2.5228764057
 C          5.3392427953       -2.0845030321        1.4570976593
 H          4.6087804682       -2.0343784499        2.2688100964
 H          5.9332366617       -2.9907194726        1.5954879158
 C          4.5692199732       -2.2029139457        0.1351136758
 H          5.2434283964       -2.5027766801       -0.6671319819
 H          3.8010223574       -2.9713946148        0.2525461091
 H          7.8939522081        0.4314811911       -1.2361327941
 H          6.7822558310        1.2519697753       -0.1387565461
 H          5.9913936554       -1.0439380584       -1.9837809965
 H          5.8482840896        0.6740687869       -2.3950252175
 O          3.8855154459        1.2326964899       -1.2012892628
 C          2.6202173445        1.5386245631       -0.7172653074
 O          2.2400233792        2.6841651091       -1.0258802048
 O          1.9452005875       -1.5924374135        0.9723000674
 C          0.5492688635        0.8167977925        0.5773473899
 C         -0.4965703218        0.6281837969       -0.4960488264
 C         -0.6143788682        1.5109335771       -1.5656939645
 C         -1.5703698745        1.3034331416       -2.5424041427
 C         -2.4388565250        0.2284977355       -2.4640029497
 C         -2.3308725906       -0.6586888973       -1.4006372677
 C         -1.3592544701       -0.4571066699       -0.4289593235
 H         -1.2774578782       -1.1658198580        0.3818720834
 N         -3.1999470404       -1.7614297859       -1.2927437117
 S         -4.0815813919       -1.9487619322        0.1181897354
 O         -3.2033327094       -2.2691387418        1.2130794244
 O         -5.0938404498       -2.9291311028       -0.2050525396
 C         -4.8367646982       -0.3533026106        0.3739966298
 C         -6.0730850578       -0.1030426134       -0.1889451344
 C         -6.6266324775        1.1600895127       -0.0564688073
 C         -5.9319484345        2.1501929411        0.6220397920
 C         -4.6908381424        1.8838235741        1.1794642263
 C         -4.1355199576        0.6201666100        1.0567675447
 H         -3.1751807944        0.3747481359        1.4792320797
 H         -4.1488211634        2.6524518950        1.7066086432
 H         -6.3602203758        3.1352660517        0.7195315287
 H         -7.5936246013        1.3695884539       -0.4846696463
 H         -6.5798846749       -0.9032826430       -0.7036874347
 H         -3.8076945286       -1.8786318924       -2.0914933027
 H         -3.1883603941        0.0707696550       -3.2248921263
 H         -1.6453719635        1.9912528704       -3.3708621332
 H          0.0670655649        2.3440337672       -1.6367962681
 H          0.3983431120        0.0272910319        1.3267730022
 C          0.4053653670        2.1607230840        1.2637498441
 C         -0.6372737411        2.3295873144        2.3261184405
 C          0.8139949520        2.2934256998        2.6987504528
 H          1.2921431732        3.2079430929        3.0158662585
 H          1.1909458018        1.4102259497        3.1945160505
 H         -1.1593405539        3.2716332693        2.3898987877
 H         -1.2403366535        1.4700893159        2.5789029929
 H          0.6060606876        3.0024490336        0.6146157038
