  62
        -98.94740263
 C          2.5356008227       -0.2199368628        0.0050826213
 C          2.2614860816       -1.2453752169        0.9398724512
 C          1.6977757509       -2.4818117383        0.3886199317
 C          1.4827775378       -2.5835101855       -0.9357894511
 C          0.9406310650       -3.7888037295       -1.6558427636
 C         -0.5913274214       -3.8763814854       -1.6502514863
 C         -1.2085356053       -4.2911216415       -0.3142498030
 H         -2.2513123501       -4.5501866039       -0.5074169686
 H         -0.7105590549       -5.1883175891        0.0556544174
 C         -1.1669241532       -3.1948552338        0.7587092324
 H         -0.9973368573       -2.2239362910        0.2867186363
 H         -2.1381313047       -3.1281128988        1.2559931782
 C         -0.1203826463       -3.4023311693        1.8538606892
 H         -0.1501163462       -2.5267744811        2.5084260523
 H         -0.3814745536       -4.2806210429        2.4497204108
 C          1.3169624510       -3.5716268767        1.3449923563
 H          1.4358341055       -4.5482344095        0.8752587452
 H          1.9916920652       -3.5094670043        2.2028603059
 H         -0.9950046888       -2.9048924693       -1.9465441401
 H         -0.8806843902       -4.6090524231       -2.4074441784
 H          1.3619423153       -4.6963559290       -1.2219580028
 H          1.2781662327       -3.7070563640       -2.6913163400
 O          1.7731259152       -1.5796542807       -1.8045311814
 C          2.2580234978       -0.3623195947       -1.3544500444
 O          2.4226829626        0.4871319336       -2.2521589778
 O          2.4849838845       -1.1337926694        2.1771636742
 C          3.0296681853        1.1271229801        0.5045945759
 C          1.9914447856        2.1681499244        0.1628666471
 C          2.2742712080        3.3836617435       -0.4448623906
 C          1.2462822570        4.2434506167       -0.7944277204
 C         -0.0743835215        3.9049564662       -0.5655495355
 C         -0.3652282648        2.6995484450        0.0650270350
 C          0.6668869789        1.8619216824        0.4484248422
 H          0.4319504792        0.9290249134        0.9407613500
 N         -1.6916663768        2.3152320309        0.3310816111
 S         -2.0354084351        0.6592089950        0.3244778071
 O         -1.7179544129        0.1267974022        1.6255642572
 O         -1.4177843750        0.0168433622       -0.8139016068
 C         -3.8065280302        0.7039708026        0.1230389721
 C         -4.5883903018        0.9980274509        1.2244170817
 C         -5.9637514801        1.0670909294        1.0702298528
 C         -6.5315098348        0.8416150700       -0.1752320986
 C         -5.7344641495        0.5447401840       -1.2704499395
 C         -4.3576558905        0.4763840964       -1.1233343796
 H         -3.6974448395        0.2430516665       -1.9435493683
 H         -6.1781117150        0.3662980586       -2.2366538319
 H         -7.6022755555        0.8947187956       -0.2926104108
 H         -6.5866929834        1.2948540176        1.9200116427
 H         -4.1013587792        1.1548261550        2.1726626279
 H         -2.3688659026        2.8431580767       -0.2024884848
 H         -0.8740390150        4.5621598697       -0.8716008128
 H          1.4775265842        5.1819370885       -1.2752652069
 H          3.2956184674        3.6496622900       -0.6628023788
 H          3.0839991080        1.0337419070        1.5998995280
 C          4.4094557940        1.4397637401       -0.0323295529
 C          5.3344558077        2.3318368018        0.7392290594
 C          5.6050948810        0.8603475421        0.6603082083
 H          6.4328329183        0.5171242184        0.0582793196
 H          5.4233863856        0.2566300432        1.5375501789
 H          5.9817173367        3.0000390340        0.1916593930
 H          4.9764552208        2.7310010331        1.6761340539
 H          4.4312766572        1.4874075904       -1.1152464949
