  62
        -98.94187780
 C          1.1592782728        1.4876791702        0.5171784476
 C          2.1173587969        1.1912463601       -0.4781198413
 C          3.1890700966        0.2447642774       -0.1080388920
 C          3.1888015617       -0.2855448056        1.1289518545
 C          4.1416351329       -1.2987015381        1.7043886321
 C          3.8473354789       -2.7250834244        1.2101947045
 C          3.5299271916       -2.8395077123       -0.2789474348
 H          3.2209627267       -3.8706382587       -0.4725459657
 H          2.6697649686       -2.2071274798       -0.5108880204
 C          4.6861141409       -2.5119706824       -1.2213806661
 H          5.5082930153       -3.2051156007       -1.0282254083
 H          4.3329050738       -2.6907913614       -2.2402532970
 C          5.2312458105       -1.0845704718       -1.1486397359
 H          5.8881837654       -0.9445641605       -2.0122267467
 H          5.8492965692       -0.9492244933       -0.2652293808
 C          4.1722977362        0.0106918741       -1.2292647768
 H          4.6775680934        0.9714125392       -1.3878861052
 H          3.5634747064       -0.1473320514       -2.1269710114
 H          4.7007108917       -3.3603579224        1.4541800258
 H          2.9776366919       -3.0989951445        1.7566705865
 H          5.1665315613       -1.0135654462        1.4862414004
 H          4.0116173923       -1.2740045702        2.7886814629
 O          2.2331255262        0.0182336303        2.0529612738
 C          1.1917632243        0.8790651306        1.7699329752
 O          0.3698733403        1.0232608775        2.6996639556
 H         -0.4994065957       -0.1737909341       -0.2263384253
 C         -1.0246305356        0.4465943925       -0.9354233204
 C         -0.8592332243        1.8233925773       -0.8940695848
 C         -1.5218116595        2.5962827852       -1.8399657615
 C         -2.3136812436        1.9942149723       -2.8027643654
 C         -2.4808596865        0.6212289895       -2.8337392593
 C         -1.8252361841       -0.1598546386       -1.8890468326
 N         -1.9539499760       -1.5567735647       -1.8767548586
 S         -1.9645381830       -2.3755228664       -0.4185052461
 O         -0.6400629649       -2.4224141089        0.1477233829
 O         -2.5580433201       -3.6565916069       -0.7391860906
 C         -3.0800895136       -1.4435439921        0.6158011955
 C         -2.6102339274       -0.6656859790        1.6535596520
 C         -3.5156449531        0.0806600383        2.3926592351
 C         -4.8661220176        0.0363448896        2.0861101224
 C         -5.3244991390       -0.7579796752        1.0454036108
 C         -4.4249678885       -1.5020251286        0.3011158527
 H         -4.7421714886       -2.1413028801       -0.5067113412
 H         -6.3762710468       -0.7963370129        0.8122518008
 H         -5.5638116151        0.6216532746        2.6639629659
 H         -3.1474203793        0.6943513310        3.1995726048
 H         -1.5553555902       -0.6401945641        1.8794929532
 H         -2.6271515726       -1.9324006579       -2.5279532223
 H         -3.1005083967        0.1560272399       -3.5847018591
 H         -2.8150551119        2.6050987376       -3.5378889362
 H         -1.4109779917        3.6682291880       -1.8281068926
 C         -0.0036335323        2.4097048244        0.2048502723
 H         -0.6160950518        2.4428574717        1.1191566681
 C          0.4884983032        3.8093704757       -0.1022669438
 C         -0.3339889364        5.0033314186        0.2764254137
 C          0.9201055312        4.6873103415        1.0327739213
 H          1.7833201936        5.3210409675        0.8957373039
 H          0.8297676345        4.2844230462        2.0314278549
 H         -0.3304115991        5.8604328282       -0.3800466079
 H         -1.2778139362        4.8264317788        0.7697146838
 H          1.0682251037        3.8526704995       -1.0167697163
 O          2.0829354971        1.6842577505       -1.6368139470
