  62
        -98.94130024
 C         -2.4954180363       -1.3540297129        0.0028481998
 C         -3.1905923098       -0.6479765046        1.0198599699
 C         -4.0129136928        0.4847970044        0.5843075605
 C         -4.0821742794        0.7916334931       -0.7232781131
 C         -4.8932417877        1.9024896938       -1.3328990048
 C         -4.2000045770        3.2714241852       -1.2978265975
 C         -4.1284022139        3.9291561208        0.0808688059
 H         -3.8230642337        4.9657329085       -0.0749151970
 H         -5.1233584816        3.9454703739        0.5268193828
 C         -3.1389183407        3.2659097733        1.0495170231
 H         -2.5395299060        4.0353534182        1.5417322409
 H         -2.4421041993        2.6367913890        0.4892464143
 C         -3.7914917561        2.4279191946        2.1494175580
 H         -2.9970994201        1.9737510586        2.7472632057
 H         -4.3778769847        3.0767221983        2.8038040346
 C         -4.6999246538        1.3038927500        1.6345896410
 H         -4.9335708320        0.6418582686        2.4718615240
 H         -5.6290648631        1.7194947639        1.2453056679
 H         -3.1901264670        3.1636156727       -1.7015184097
 H         -4.7550994083        3.9349714426       -1.9650064823
 H         -5.8586381799        1.9695256513       -0.8305524679
 H         -5.0613432667        1.6283608096       -2.3766399374
 O         -3.4117634373        0.0867472794       -1.6708065495
 C         -2.5836697332       -0.9799282561       -1.3380066227
 O         -2.0114880540       -1.4852364612       -2.3232070015
 O         -3.1333626501       -0.9623377342        2.2382994722
 C         -1.6335219520       -2.5204248379        0.4570886555
 C         -0.2140055067       -2.0660015031        0.6816582448
 C          0.4189684870       -2.2527649740        1.9042796721
 C          1.7113369826       -1.7981754030        2.1044218594
 C          2.3969865785       -1.1510773217        1.0920611447
 C          1.7708196010       -0.9550837067       -0.1321353170
 C          0.4774610177       -1.4128739054       -0.3302678864
 H         -0.0066012999       -1.2548673857       -1.2834426403
 N          2.4590303438       -0.2920119939       -1.1692367997
 S          2.9555353338        1.2807985275       -0.8340907091
 O          2.0922281458        1.9083119936        0.1411037810
 O          3.0579387311        1.9360490236       -2.1198477798
 C          4.5891110293        1.0646623196       -0.1603055880
 C          4.8860685789        1.5440594005        1.1003025362
 C          6.1659879373        1.3619932935        1.6012137813
 C          7.1200277525        0.7080913487        0.8366059997
 C          6.8059820650        0.2349477797       -0.4290022123
 C          5.5290437151        0.4144811409       -0.9361420620
 H          5.2433001454        0.0660437771       -1.9145937365
 H          7.5505106331       -0.2729604753       -1.0205243603
 H          8.1143982706        0.5662495527        1.2294751717
 H          6.4120454435        1.7295134108        2.5844864855
 H          4.1090914867        2.0397875886        1.6601374802
 H          1.9512741649       -0.3076888661       -2.0434598878
 H          3.4025790769       -0.7933720876        1.2421495407
 H          2.1896898729       -1.9479492976        3.0601523319
 H         -0.1160289455       -2.7407455712        2.7057475377
 H         -2.0481720523       -2.8025595510        1.4377387788
 C         -1.7425529371       -3.7387109512       -0.4498744819
 C         -0.6129769838       -4.2667469799       -1.2779846987
 C         -1.0607975763       -5.0180215609       -0.0627253931
 H         -1.5919342583       -5.9486932126       -0.1914153060
 H         -0.4165853269       -4.9904183067        0.8032220316
 H         -0.8537018595       -4.6597677828       -2.2540601755
 H          0.3357728138       -3.7553761604       -1.2395309233
 H         -2.7329777380       -3.8283033761       -0.8847957570
