  62
        -98.94671796
 C         -1.9924233599       -1.4548675591       -0.0939415023
 C         -1.7169816603       -0.2166738802       -0.7201530753
 C         -2.8689961591        0.6759008702       -0.9088797709
 C         -4.0911956416        0.2641509970       -0.5252547785
 C         -5.3395393876        1.0929356716       -0.6088206319
 C         -5.5677403492        1.8841336872        0.6870706139
 C         -4.3341957027        2.6460280275        1.1720673336
 H         -4.6225403014        3.1887199712        2.0748979221
 H         -3.5630257120        1.9283784767        1.4614019606
 C         -3.7511343172        3.6302138738        0.1483896653
 H         -3.5254481068        4.5701147189        0.6563695205
 H         -4.4933754066        3.8479189022       -0.6204036531
 C         -2.4558815005        3.1599000733       -0.5163121342
 H         -1.7454845379        2.8450023460        0.2527523459
 H         -2.0184529773        4.0113468102       -1.0448432619
 C         -2.6058087613        2.0185931978       -1.5304563666
 H         -3.3831920311        2.2687879259       -2.2551327552
 H         -1.6570875879        1.9185153591       -2.0663623085
 H         -5.8680310446        1.1847282766        1.4708302058
 H         -6.3895122411        2.5837649724        0.5238765646
 H         -6.1868152900        0.4243064171       -0.7698873268
 H         -5.2615361964        1.7738325804       -1.4541593661
 O         -4.3223207110       -0.9505005682        0.0363114281
 C         -3.2812148982       -1.8302715148        0.2845593075
 O         -3.6245467542       -2.8941625775        0.8383145044
 O         -0.5683244773        0.1312477765       -1.0975601102
 C         -0.8579191111       -2.4254832473        0.1826641595
 C          0.1957349297       -1.7422841096        1.0202836713
 C         -0.1898841711       -1.1533737085        2.2230155088
 C          0.7317266858       -0.5082478269        3.0236014641
 C          2.0587852621       -0.4277538095        2.6369562747
 C          2.4555232792       -1.0157978723        1.4430275257
 C          1.5287159986       -1.6791838025        0.6480092929
 H          1.8673812268       -2.1202960226       -0.2738915807
 N          3.8022046722       -0.9722514855        1.0350118491
 S          4.2033449805       -0.3238405616       -0.4568680989
 O          3.5652920155       -1.0729226664       -1.5069371612
 O          5.6505862882       -0.3124488244       -0.4688059150
 C          3.6022770023        1.3550898113       -0.3997685382
 C          2.2601839871        1.6083799269       -0.5992040899
 C          1.8087999053        2.9151481288       -0.4892655483
 C          2.6940591063        3.9365761727       -0.1835849023
 C          4.0392807627        3.6630448199        0.0149089299
 C          4.4983910395        2.3604928786       -0.0888891297
 H          5.5353703203        2.1013008782        0.0524190449
 H          4.7280800687        4.4581620607        0.2512477024
 H          2.3331718847        4.9497703497       -0.1008442676
 H          0.7605704559        3.1161128326       -0.6445290282
 H          1.5790364513        0.8066505510       -0.8368787066
 H          4.4240035816       -0.5902760467        1.7343571613
 H          2.7809289780        0.0820130523        3.2567517982
 H          0.4155702609       -0.0575772111        3.9522842614
 H         -1.2291809155       -1.2101488135        2.5187968316
 H         -1.2925598010       -3.2423526723        0.7772470645
 C         -0.3275316666       -2.9998306468       -1.1139121086
 C          0.3222458891       -4.3496348554       -1.1260749086
 C         -1.0347677902       -4.1650681777       -1.7347003238
 H         -1.1283986204       -4.1987969461       -2.8098587285
 H         -1.8913210973       -4.5619402811       -1.2089221695
 H          1.1644977328       -4.5080954641       -1.7829361928
 H          0.3891537539       -4.8807942843       -0.1884826135
 H          0.0652398325       -2.2420557964       -1.7828543793
