  62
        -98.94759852
 C         -0.7616418657       -1.2692505570        0.0600680236
 C         -1.4716043347       -0.5905252205        1.0779636620
 C         -2.3992669542        0.4539716290        0.6244964381
 C         -2.4720894335        0.7436865883       -0.6875337767
 C         -3.4460063974        1.7071058851       -1.2998706969
 C         -4.7447458674        0.9930064137       -1.7040493175
 C         -5.3362147991        0.1063166580       -0.6080568914
 H         -6.2615871742       -0.3211434734       -1.0003776798
 H         -4.6554090950       -0.7260037847       -0.4151057256
 C         -5.6300716530        0.8350152685        0.7106595574
 H         -5.6624345103        1.9116466960        0.5402012938
 H         -6.6177911011        0.5332603172        1.0654901993
 C         -4.6402684659        0.5303850706        1.8366326291
 H         -4.5368805484       -0.5515606730        1.9522964480
 H         -5.0549517695        0.9202214824        2.7701947956
 C         -3.2402295950        1.1343135474        1.6676586549
 H         -3.3298566945        2.2020809567        1.4599841142
 H         -2.7059384979        1.0086070602        2.6140845122
 H         -5.4768762160        1.7478675943       -1.9964278761
 H         -4.5376237718        0.3654868377       -2.5738664633
 H         -3.6635406768        2.5022780433       -0.5901425255
 H         -2.9904428975        2.1351234242       -2.1934344902
 O         -1.7014253112        0.1357837354       -1.6243719693
 C         -0.8516599742       -0.9052537594       -1.2835114074
 O         -0.2436045396       -1.4094299023       -2.2459710084
 H          1.5416036375       -0.1870022128        0.4960984911
 C          2.1117152112       -0.9863555365        0.0451301238
 C          1.5337721328       -2.2433766098       -0.0785010834
 C          2.2838460928       -3.2667750191       -0.6438269988
 C          3.5734628867       -3.0269481987       -1.0850854104
 C          4.1420947308       -1.7730123183       -0.9663615061
 C          3.4015485140       -0.7424733080       -0.3964166917
 N          3.9360123534        0.5465301426       -0.2983206754
 S          3.3805332502        1.6651389551        0.7988392256
 O          4.3790020705        2.7135236827        0.7675352403
 O          3.1326709548        1.0780714198        2.0953443445
 C          1.8734939320        2.2971275570        0.0951607146
 C          0.8123827546        2.5856294428        0.9293426614
 C         -0.3271738217        3.1600783773        0.3907712744
 C         -0.3874170351        3.4308053215       -0.9668480477
 C          0.6802113876        3.1201126954       -1.7942547514
 C          1.8259798491        2.5533312540       -1.2603960159
 H          2.6762706355        2.3056565250       -1.8738553458
 H          0.6245306603        3.3200998928       -2.8522526803
 H         -1.2718474840        3.8876798142       -1.3810560714
 H         -1.1588648300        3.3942805134        1.0350353991
 H          0.8936589695        2.3479027424        1.9786862502
 H          4.9120189448        0.6485579682       -0.5294247235
 H          5.1462064545       -1.5859628180       -1.3146707904
 H          4.1443904509       -3.8292260607       -1.5273380819
 H          1.8584487710       -4.2517314214       -0.7439963124
 C          0.1292219086       -2.4382487020        0.4344821201
 H          0.1671578630       -2.4402267506        1.5349367019
 C         -0.5066293098       -3.7328978193       -0.0328493022
 C         -0.3135783278       -5.0012848010        0.7418211965
 C         -1.6413104842       -4.3072351928        0.7594611513
 H         -2.4677736742       -4.7558344106        0.2288008920
 H         -1.9327260191       -3.7809973071        1.6569357263
 H         -0.2308349285       -5.9306030926        0.1985486830
 H          0.2925340999       -4.9551401889        1.6340391695
 H         -0.5695553941       -3.7954682981       -1.1138706287
 O         -1.3489535322       -0.8573278226        2.3050343351
