  62
        -98.93243447
 C         -1.6412146216       -1.1836223439        0.4904164566
 C         -1.9738499098       -0.0360205965       -0.2701217592
 C         -3.3893588360        0.0881750963       -0.6584881123
 C         -4.2764424766       -0.8470425425       -0.2774062516
 C         -5.7383699863       -0.9051648402       -0.6343208386
 C         -6.6224309437        0.2276308586       -0.0780518474
 C         -6.8139451264        1.4096609960       -1.0363848809
 H         -6.6608736974        1.0616261346       -2.0586946582
 H         -7.8498648580        1.7488689346       -0.9727597902
 C         -5.9278072222        2.6314386828       -0.7748313490
 H         -6.3342675466        3.1931209497        0.0693654149
 H         -5.9797655897        3.2771280775       -1.6542028041
 C         -4.4600974296        2.3371386137       -0.4639863520
 H         -4.3684961848        1.9610180364        0.5578588244
 H         -3.9079570747        3.2787300182       -0.4946777815
 C         -3.7929280361        1.3219010441       -1.4121024553
 H         -4.4589715843        1.0686197578       -2.2358782487
 H         -2.8770198941        1.7478847653       -1.8276237724
 H         -6.2182563534        0.5704031869        0.8740462271
 H         -7.6023003371       -0.2075814700        0.1245099822
 H         -6.0947048636       -1.8597430121       -0.2417187702
 H         -5.8317988845       -0.9358547672       -1.7223129331
 O         -3.9203642152       -1.9186729208        0.4828598428
 C         -2.6121946943       -2.1020128647        0.8988245271
 O         -2.4426594824       -3.1038026705        1.6215989774
 O         -1.1471570166        0.8447067992       -0.6212480702
 C         -0.2206924608       -1.4507090351        0.9584449336
 C          0.4128712714       -0.1785479544        1.4644321526
 C         -0.1475176773        0.4480016173        2.5745887332
 C          0.3962667210        1.6146061704        3.0749120170
 C          1.5199719312        2.1709897686        2.4901443321
 C          2.0931594048        1.5492692230        1.3866485678
 C          1.5384461619        0.3813030765        0.8809944395
 H          1.9642503733       -0.0589824976       -0.0039568632
 N          3.2670555749        2.0630320976        0.8267076717
 S          3.8113550998        1.7122956110       -0.7068568369
 O          4.9513764039        2.5908874668       -0.8724223404
 O          2.7844818166        1.8279728859       -1.7144287422
 C          4.3831659701        0.0288729498       -0.5980815532
 C          4.1816055630       -0.8132402495       -1.6735634502
 C          4.6368496633       -2.1202211856       -1.5993822005
 C          5.2868464951       -2.5593034312       -0.4564252794
 C          5.4890247964       -1.6989369190        0.6120426119
 C          5.0365200998       -0.3908861308        0.5435586789
 H          5.1734309302        0.3018585447        1.3568583568
 H          5.9953083100       -2.0444933014        1.4989451101
 H          5.6364108630       -3.5780756760       -0.3989157820
 H          4.4805264631       -2.7899461864       -2.4302309008
 H          3.6616770768       -0.4303109064       -2.5379312864
 H          3.5541192479        2.9733277708        1.1510610018
 H          1.9474204694        3.0821478532        2.8800467065
 H         -0.0565015686        2.0968930398        3.9283726523
 H         -1.0273175428        0.0131624003        3.0301874959
 H         -0.3292951314       -2.1337030688        1.8175633453
 C          0.6401429076       -2.1767784205       -0.0651309647
 C          0.0364545402       -3.1550382325       -1.0265934910
 C          0.5865302688       -1.8548197313       -1.5268002601
 H          1.5095030498       -1.8691389605       -2.0872811045
 H         -0.1007758538       -1.0868368046       -1.8456728003
 H          0.5810861054       -4.0614526406       -1.2429189420
 H         -1.0357822759       -3.2847329500       -1.0034218563
 H          1.6133654017       -2.4403424249        0.3387883021
