  62
        -98.94496117
 C         -1.8772788306       -0.7326308261       -0.1589303761
 C         -2.4415799891       -0.0990096100        0.9733313772
 C         -3.5064720092        0.8755093923        0.7018421712
 C         -3.8472658860        1.1377158840       -0.5734376162
 C         -4.9452887460        2.0712961747       -0.9917958454
 C         -6.2806474779        1.3284401993       -1.1388548344
 C         -6.6308521976        0.4444291214        0.0581362168
 H         -7.6056818358       -0.0045842695       -0.1437056033
 H         -5.9078555346       -0.3719524128        0.1216195499
 C         -6.6773547027        1.1849709720        1.4020012395
 H         -7.5709856346        0.8699245516        1.9448487620
 H         -6.7646638527        2.2585621026        1.2308387986
 C         -5.4819108243        0.9134318718        2.3170527742
 H         -5.7184469687        1.3041768903        3.3103367244
 H         -5.3345422245       -0.1649229621        2.4162609718
 C         -4.1526242911        1.5438359164        1.8829350132
 H         -4.2956803749        2.6097158830        1.6928899354
 H         -3.4470731569        1.4348091677        2.7120425911
 H         -6.2285041775        0.6961732278       -2.0282075295
 H         -7.0702969031        2.0661847204       -1.2925628120
 H         -5.0395896667        2.8673204295       -0.2555323213
 H         -4.6752192974        2.5095114925       -1.9541749422
 O         -3.2512189356        0.5425496899       -1.6376945592
 C         -2.2578369051       -0.4108801038       -1.4621108823
 O         -1.8036674598       -0.8803426200       -2.5216006507
 H          0.3319714703        0.6244175082        0.3050733417
 C          0.9279872240       -0.0089314589       -0.3405177714
 C          0.4969300403       -1.3049600034       -0.5993708211
 C          1.2806068885       -2.1113427338       -1.4134213562
 C          2.4440023228       -1.6172402596       -1.9793717750
 C          2.8559191023       -0.3200307753       -1.7396201421
 C          2.0901409591        0.4887006562       -0.9082589155
 N          2.5088591507        1.8029366893       -0.6415496313
 S          4.1250943283        2.0554896689       -0.2901719799
 O          4.1517013909        3.2408814396        0.5379229697
 O          4.8829741619        2.1284682249       -1.5144980041
 C          4.6308974875        0.6237365490        0.6470359115
 C          3.9693873325        0.3524781286        1.8284850782
 C          4.3264181637       -0.7726165731        2.5533901369
 C          5.3341640968       -1.6032062039        2.0870742334
 C          5.9925578032       -1.3141086593        0.9021851323
 C          5.6378579538       -0.1911916485        0.1716637616
 H          6.1206233449        0.0691544345       -0.7561220373
 H          6.7770447458       -1.9604460385        0.5431589793
 H          5.6068549108       -2.4801515226        2.6526412028
 H          3.8142145536       -0.9983445758        3.4750222539
 H          3.1924463648        1.0192959552        2.1674191917
 H          1.9086909032        2.3062987729       -0.0055393743
 H          3.7478094979        0.0847626448       -2.1895919804
 H          3.0359980449       -2.2512504506       -2.6213431351
 H          0.9757529345       -3.1244756209       -1.6160490924
 C         -0.7860500657       -1.7676593513        0.0466735572
 H         -0.6234915123       -1.8057297866        1.1342985408
 C         -1.2492197673       -3.1300732184       -0.4238384299
 C         -0.7006041157       -4.3737404040        0.2074362954
 C         -2.1119487263       -3.9533517799        0.4836032095
 H         -2.9180343031       -4.5257927593        0.0496254215
 H         -2.3440614190       -3.5420685880        1.4553238400
 H         -0.5387796144       -5.2400333194       -0.4159685738
 H          0.0260850468       -4.2547974540        0.9965376978
 H         -1.4781400363       -3.1484823773       -1.4834046253
 O         -2.0654972600       -0.3312683234        2.1547006507
