  62
        -98.94034904
 C         -2.4206603691       -1.1600835048        0.1061465056
 C         -3.3256140661       -0.4675551407        0.9502059089
 C         -4.1972629894        0.5154907762        0.2980576874
 C         -4.0886334724        0.7263179954       -1.0262107372
 C         -4.9285292730        1.6685828813       -1.8452679345
 C         -4.4362579754        3.1221173781       -1.8289454047
 C         -4.6685408561        3.8723243828       -0.5168363531
 H         -4.4774812522        4.9291671649       -0.7131736422
 H         -5.7154215575        3.7793648062       -0.2263572687
 C         -3.7693577552        3.4156928476        0.6406611779
 H         -2.9251467961        2.8468689691        0.2431694791
 H         -3.3542163909        4.2900560029        1.1473408062
 C         -4.4793424232        2.5729712397        1.7005144211
 H         -5.2413891391        3.1767571571        2.1982231173
 H         -3.7433533362        2.2751313158        2.4521539778
 C         -5.1424545939        1.3005499308        1.1567228960
 H         -5.4229491314        0.6714755311        2.0051874584
 H         -6.0423690157        1.5554240821        0.5972886400
 H         -3.3711421054        3.1330365982       -2.0716547668
 H         -4.9638005038        3.6534413573       -2.6243189910
 H         -4.8896469215        1.3040392758       -2.8739746942
 H         -5.9624737629        1.6295506370       -1.5011660534
 O         -3.1819935971        0.0705974090       -1.7960920768
 C         -2.3095186971       -0.8673262891       -1.2543252565
 O         -1.5117644932       -1.3448569049       -2.0805979000
 O         -3.3995152584       -0.6616731236        2.1936090297
 C         -1.5037989685       -2.1844955192        0.7491663340
 C         -0.0748951810       -1.9545983859        0.3233907939
 C          0.7178008153       -2.9225721586       -0.2774129441
 C          2.0264819714       -2.6376247205       -0.6273055645
 C          2.5712716005       -1.3899465546       -0.3896515719
 C          1.7887992686       -0.4136395678        0.2137624497
 C          0.4823044434       -0.7052405298        0.5716390684
 H         -0.1273128965        0.0567628555        1.0440370674
 N          2.3310595395        0.8642877174        0.4449113015
 S          3.7818158148        0.9585960324        1.2867715173
 O          3.9262892283       -0.1407929123        2.2132210900
 O          3.7994196629        2.2869619417        1.8601760879
 C          5.0275015753        0.8569396300        0.0193208077
 C          6.0120313136       -0.1084421534        0.0992475826
 C          6.9784864675       -0.1632066734       -0.8930638255
 C          6.9441160960        0.7443734019       -1.9406527895
 C          5.9501220500        1.7097289290       -2.0044534270
 C          4.9814009404        1.7705156695       -1.0154777407
 H          4.1939224219        2.5055986709       -1.0270739304
 H          5.9262316509        2.4133175152       -2.8210331668
 H          7.6963701602        0.6995453827       -2.7122832410
 H          7.7521713230       -0.9125395459       -0.8451299972
 H          5.9942778352       -0.7966305244        0.9291873570
 H          1.6650625095        1.5240883687        0.8201591539
 H          3.5872010371       -1.1634762241       -0.6689654245
 H          2.6290850389       -3.3982116296       -1.0998330122
 H          0.3064668315       -3.8951819199       -0.4906015962
 H         -1.5673630798       -1.9632621973        1.8287742789
 C         -1.9614885826       -3.6258651968        0.5820634680
 C         -3.4062084111       -3.9585013300        0.3614855670
 C         -2.4108416076       -4.1799548662       -0.7355831902
 H         -2.1403777247       -5.1963749029       -0.9819462389
 H         -2.4170697056       -3.5118408618       -1.5820296021
 H         -3.8169990726       -4.8187030461        0.8685169012
 H         -4.1009024519       -3.1366594452        0.2638757598
 H         -1.4105720592       -4.3004087692        1.2306307050
