  62
        -98.94701203
 C         -1.2498156177       -0.7644376112        0.6640525925
 C         -2.0918087109       -0.7401979649       -0.4732249794
 C         -2.8135712398        0.5181529471       -0.7100300167
 C         -2.5865581507        1.5715752773        0.0948149581
 C         -3.2836025453        2.8966636304       -0.0087034500
 C         -4.5513703440        2.9288471261        0.8567841548
 C         -5.4663963254        1.7207312889        0.6565972759
 H         -4.9533787528        0.8235395978        1.0100302064
 H         -6.3402003653        1.8655602783        1.2954112440
 C         -5.9227030522        1.5039646520       -0.7928612134
 H         -6.9931338706        1.2880541554       -0.7948649338
 H         -5.7752553778        2.4185326744       -1.3683507847
 C         -5.2323786216        0.3405552160       -1.5071291856
 H         -5.2983865533       -0.5590041397       -0.8901488511
 H         -5.7741730996        0.1417734245       -2.4356175595
 C         -3.7600610588        0.5629671733       -1.8765529456
 H         -3.6532648382        1.5028519888       -2.4227338046
 H         -3.4545282229       -0.2530160723       -2.5385001945
 H         -4.2520964283        2.9619696113        1.9068823994
 H         -5.0996491585        3.8451207671        0.6304053901
 H         -2.5967447958        3.6729672863        0.3334006599
 H         -3.5351198708        3.0865167323       -1.0505182481
 O         -1.7190646069        1.5320683570        1.1373238717
 C         -1.0303574432        0.3698978145        1.4443695073
 O         -0.2622063782        0.4739493869        2.4230521538
 O         -2.2414419733       -1.7185097184       -1.2520105845
 C         -0.4506704041       -2.0151065496        0.9961143972
 C          0.5104368032       -2.2665825660       -0.1409626180
 C          0.5554903508       -3.4356389228       -0.8863392574
 C          1.4167928787       -3.5358962020       -1.9664736394
 C          2.2351206532       -2.4815787055       -2.3258662315
 C          2.2117856998       -1.3122448745       -1.5704740673
 C          1.3718163992       -1.2277951003       -0.4741215482
 H          1.3420790235       -0.3199275113        0.1077479527
 N          3.0465672112       -0.2372492783       -1.8932823197
 S          2.7905182792        1.3238786220       -1.3622865461
 O          1.3888108144        1.6664632043       -1.2913471984
 O          3.5933369801        2.1272119816       -2.2614938887
 C          3.5538268771        1.3362842771        0.2459617018
 C          2.8148394321        1.5829983525        1.3841315810
 C          3.4550917970        1.5707172390        2.6142559922
 C          4.8157802889        1.3184590600        2.6840519424
 C          5.5469201008        1.0787436540        1.5295993198
 C          4.9123136277        1.0865563382        0.2991209529
 H          5.4430357213        0.9129095096       -0.6220954005
 H          6.6057041817        0.8841998367        1.5870910688
 H          5.3075847444        1.3092394097        3.6439945007
 H          2.8763475635        1.7503122302        3.5062671811
 H          1.7534357594        1.7654796651        1.3078690543
 H          3.5095616437       -0.2873339932       -2.7873028925
 H          2.8842796985       -2.5549756577       -3.1848397680
 H          1.4372921459       -4.4447351422       -2.5487258067
 H         -0.0949387538       -4.2579825994       -0.6385724969
 H          0.1361862486       -1.7720579215        1.8935866470
 C         -1.3639363330       -3.1808258497        1.3053602057
 C         -0.8701515268       -4.3107569717        2.1565043655
 C         -1.8803061105       -3.3475995222        2.7017892069
 H         -2.8966360697       -3.6854974853        2.8383128498
 H         -1.5573878409       -2.6280113580        3.4402741003
 H         -1.1942022098       -5.3133110283        1.9220851505
 H          0.1408181854       -4.2489775878        2.5296062696
 H         -2.0425453088       -3.4085555190        0.4919921601
