  62
        -98.94292154
 C         -1.8099511824       -0.8355761394        0.3756532180
 C         -3.1571293195       -1.0925622106        0.7385914986
 C         -4.0539274727        0.0682850395        0.7549576758
 C         -3.5628661439        1.2929625381        0.4940472496
 C         -4.3458700547        2.5775550333        0.4840367884
 C         -5.0724832865        2.8517589732       -0.8399514317
 C         -6.2947082372        1.9719072561       -1.1059082644
 H         -6.8298571784        2.4135250424       -1.9489102025
 H         -6.9610087826        2.0069028128       -0.2434154579
 C         -5.9636745506        0.5113374947       -1.4437316811
 H         -4.9113885605        0.4326216950       -1.7276689845
 H         -6.5508361318        0.1951394860       -2.3089421244
 C         -6.2489098927       -0.4806273072       -0.3157582682
 H         -5.9441247956       -1.4761699231       -0.6492980722
 H         -7.3221218735       -0.5080178216       -0.1148987372
 C         -5.5132487468       -0.1738159761        0.9953418384
 H         -5.6027640134       -1.0435963639        1.6507910490
 H         -5.9664856148        0.6853225131        1.4892777829
 H         -4.3589012966        2.7414326931       -1.6599484524
 H         -5.3994811807        3.8939626773       -0.8225312961
 H         -5.0666568930        2.5747442996        1.3020928497
 H         -3.6271589722        3.3816906941        0.6553326173
 O         -2.2494579841        1.5087320637        0.2224700629
 C         -1.3442284548        0.4571854297        0.1365640563
 O         -0.1855223149        0.8176430807       -0.1393331900
 H          1.7083059500       -1.8995140469       -0.7428842901
 C          1.6571291730       -1.7157854718        0.3169097436
 C          0.4406025236       -1.7148608700        0.9810111002
 C          0.4258356862       -1.4374564279        2.3463269246
 C          1.5954036111       -1.1606763013        3.0258801831
 C          2.8080018622       -1.1583781239        2.3582187170
 C          2.8355174743       -1.4368762563        0.9977763524
 N          4.0589813987       -1.4809507241        0.3018756254
 S          4.3163693091       -0.5097347469       -1.0370544887
 O          3.3125899088       -0.7675708892       -2.0350314777
 O          5.6849198143       -0.7803049915       -1.4236330809
 C          4.2046386501        1.1588793926       -0.4150010438
 C          2.9662633395        1.6912423883       -0.1175618251
 C          2.9069556817        2.9658060685        0.4265161304
 C          4.0714920322        3.6793656452        0.6626716727
 C          5.3069827406        3.1276007021        0.3579237761
 C          5.3763064745        1.8537288958       -0.1811766679
 H          6.3130414669        1.3845298858       -0.4356174531
 H          6.2123386554        3.6838501688        0.5406529035
 H          4.0146530459        4.6701128610        1.0857367134
 H          1.9410650643        3.3844206927        0.6612959962
 H          2.0665936927        1.1272816839       -0.3065365866
 H          4.8678804931       -1.4234862924        0.9053564392
 H          3.7252112848       -0.9449822721        2.8862644961
 H          1.5653017379       -0.9436377609        4.0829632523
 H         -0.5225545465       -1.4377349669        2.8667512661
 C         -0.8665237699       -2.0210709502        0.2948146868
 H         -1.3723239177       -2.8122235080        0.8744535333
 C         -0.6863499945       -2.5666324611       -1.1141158692
 C         -1.7737868120       -2.4494204705       -2.1388263757
 C         -0.5036843745       -1.6723490459       -2.3018770553
 H          0.1977485623       -1.9714185046       -3.0673919561
 H         -0.5230767352       -0.6067996764       -2.1341112600
 H         -2.6692484839       -1.9121225969       -1.8615382619
 H         -1.9540618692       -3.2883718351       -2.7940391340
 H         -0.1247123893       -3.4963032943       -1.1186734582
 O         -3.5868855332       -2.2373644046        1.0401156168
