  62
        -98.94227503
 C         -1.2017343467       -1.1810269590       -0.0516402378
 C         -1.6327001274       -0.1743038873        0.8411759203
 C         -2.7200970715        0.7026207043        0.3764853509
 C         -3.2114906340        0.5408883088       -0.8661341161
 C         -4.2687759147        1.3150367808       -1.6257394363
 C         -5.2282507265        2.2524383704       -0.8965899318
 C         -6.2060217562        1.5597204352        0.0516332238
 H         -6.7773983254        2.3307983732        0.5731604336
 H         -6.9078773571        0.9696248081       -0.5429669023
 C         -5.5743851674        0.6268114755        1.0817112789
 H         -6.3790594940        0.2144021269        1.6962756423
 H         -5.0964794197       -0.2121889954        0.5719490377
 C         -4.5610296436        1.2796658984        2.0200159650
 H         -5.0103694430        2.1525536963        2.4972579658
 H         -4.3245590627        0.5546284337        2.8031933175
 C         -3.2325141710        1.7056294475        1.3693075427
 H         -2.4756229707        1.7725001541        2.1565185579
 H         -3.3085595431        2.6899527928        0.9123087174
 H         -4.6731186079        3.0256256671       -0.3733584549
 H         -5.8169424139        2.7549636237       -1.6690853213
 H         -3.7242006365        1.8956823841       -2.3793077873
 H         -4.8483499489        0.5652367307       -2.1738838153
 O         -2.7286869085       -0.4155712494       -1.7129002815
 C         -1.7219242308       -1.2912373506       -1.3391625870
 O         -1.3914571357       -2.1013949016       -2.2259733777
 O         -1.1218766198       -0.0058878849        1.9822625777
 C         -0.0853909563       -2.1154017245        0.3720215923
 C          1.1396394098       -1.9075376246       -0.4854079743
 C          1.9844346788       -2.9401818765       -0.8739065449
 C          3.1108389108       -2.6735350896       -1.6331042376
 C          3.4357095390       -1.3790932136       -1.9967902611
 C          2.5999139738       -0.3386712136       -1.6078673542
 C          1.4625746232       -0.6127880103       -0.8663967917
 H          0.8065613419        0.2010522197       -0.5992756435
 N          2.8857569569        0.9938591216       -1.9420806911
 S          2.5352875619        2.2008664483       -0.8376799579
 O          1.1210314136        2.4812469641       -0.8268870815
 O          3.3899047253        3.3009857381       -1.2328490660
 C          3.0800362440        1.5480247916        0.7310177688
 C          4.4422263516        1.3927076599        0.9071601551
 C          4.9102191268        0.8374715168        2.0859502820
 C          4.0111754975        0.4418762317        3.0652884138
 C          2.6489803289        0.6106480758        2.8767202503
 C          2.1741538138        1.1689863022        1.6996802531
 H          1.1162025089        1.2998866000        1.5332581650
 H          1.9409604125        0.3058031782        3.6310308172
 H          4.3729461977        0.0022034167        3.9813158475
 H          5.9701481354        0.7110100902        2.2365131783
 H          5.1090649234        1.7222390427        0.1270247131
 H          3.7761685621        1.1405918909       -2.3940048494
 H          4.3182446158       -1.1736726407       -2.5826943678
 H          3.7520875672       -3.4862139463       -1.9384316174
 H          1.7563183748       -3.9542932318       -0.5896535255
 H          0.1742102112       -1.8109297057        1.3980373783
 C         -0.5666564824       -3.5513542263        0.3978376990
 C         -0.0123418199       -4.5199232262        1.3984771549
 C         -1.4124492534       -4.0081214806        1.5477075521
 H         -2.2348596129       -4.6786646934        1.3487056675
 H         -1.6157055574       -3.2895992262        2.3284883951
 H          0.1252385104       -5.5478884252        1.0986533415
 H          0.7341980465       -4.1554593986        2.0876812349
 H         -0.8227705286       -3.9202261297       -0.5888720475
