  62
        -98.93825234
 C          1.5234290287        0.9308467461        0.9018575881
 C          2.0832079846        0.3584301935       -0.2667267693
 C          2.4701709711       -1.0632032169       -0.1810809413
 C          2.1950604245       -1.7602016480        0.9330433218
 C          2.5187561932       -3.1959317975        1.2675668615
 C          2.3769962212       -4.2442289765        0.1586433376
 C          1.2082622068       -4.0133169452       -0.8104119739
 H          0.6151685667       -4.9274799901       -0.8801596173
 H          0.5479350480       -3.2263485111       -0.4401365461
 C          1.6665839018       -3.6365518945       -2.2204244786
 H          2.5163268478       -4.2635362437       -2.5020039274
 H          0.8526359591       -3.8462668045       -2.9187389350
 C          2.0383390355       -2.1655696522       -2.3936045660
 H          1.1394135627       -1.5536614168       -2.2770415102
 H          2.3977608263       -2.0227379818       -3.4160769369
 C          3.1022452310       -1.6377937325       -1.4160833189
 H          3.8313352462       -2.4082642408       -1.1740133274
 H          3.6224814614       -0.8078623702       -1.9025118970
 H          3.3037210545       -4.3010012474       -0.4107399909
 H          2.2531782362       -5.2091595780        0.6538440733
 H          3.5407437915       -3.2273851492        1.6582316871
 H          1.8524821027       -3.4508263056        2.0958250660
 O          1.5700718773       -1.1908270255        2.0042357829
 C          1.2201539252        0.1489739996        2.0164487399
 O          0.6439466411        0.5140499187        3.0612018130
 H         -1.0610863665        0.9769339892        0.2822415944
 C         -0.8821608315        1.7455885471       -0.4555372722
 C          0.1850328602        2.6163907824       -0.2727093116
 C          0.4023006853        3.6094688923       -1.2166347595
 C         -0.4161274095        3.6982571344       -2.3303597307
 C         -1.4422766392        2.7943613880       -2.5357601530
 C         -1.6715968658        1.8009578260       -1.5897038514
 N         -2.6974126910        0.8569521141       -1.7488573679
 S         -2.4716252181       -0.7060950281       -1.1897740057
 O         -1.0951353741       -1.1280873266       -1.2801479612
 O         -3.4277931688       -1.4926117330       -1.9423639770
 C         -2.9999018085       -0.6388758246        0.5083178354
 C         -4.2344348717       -0.0880070605        0.7902533098
 C         -4.6582662476       -0.0367245511        2.1081588787
 C         -3.8452452537       -0.5333447420        3.1163068197
 C         -2.6109590552       -1.0887099478        2.8170613981
 C         -2.1845864606       -1.1455085434        1.4999429565
 H         -1.2229969670       -1.5564734521        1.2306228858
 H         -1.9677749178       -1.4624085495        3.5977534809
 H         -4.1718747283       -0.4869205159        4.1431812571
 H         -5.6174021283        0.3936512128        2.3471664775
 H         -4.8351056104        0.2881091234       -0.0209346064
 H         -3.1653781825        0.8776224140       -2.6430610950
 H         -2.0547372946        2.8465846256       -3.4231332681
 H         -0.2353960117        4.4693946308       -3.0640531304
 H          1.2278478815        4.2921063722       -1.0991344776
 C          1.0473578573        2.3754951635        0.9415844620
 H          0.3951428829        2.4277220750        1.8295750284
 C          2.1369777605        3.4149596170        1.1471480751
 C          3.4162940947        3.0600601105        1.8435640628
 C          3.4268713547        3.4032741072        0.3856907447
 H          3.8513472653        4.3514076111        0.0885169413
 H          3.5759235200        2.6126319340       -0.3315155157
 H          3.5589952646        2.0265252615        2.1253295461
 H          3.8335666067        3.7668349911        2.5451119835
 H          1.7210502246        4.3906914066        1.3798034511
 O          2.2837734535        0.9958172481       -1.3319655602
