  62
        -98.93805555
 C         -2.0800227196       -1.1188039052        0.0573317453
 C         -2.7977701442       -0.4135181971        1.0511395896
 C         -3.5497444916        0.7652762625        0.5961675489
 C         -3.4795029488        1.1259505139       -0.6983772279
 C         -4.2427891763        2.2553909843       -1.3299304381
 C         -5.7077591110        1.8342841397       -1.5645353587
 C         -6.7288192756        2.6184015777       -0.7400213794
 H         -6.8530495194        3.6102550297       -1.1796080778
 H         -7.6852164547        2.0981674136       -0.8242520479
 C         -6.3900951540        2.8025757093        0.7424263359
 H         -7.3055050742        3.1311182204        1.2390352149
 H         -5.6672763075        3.6119581935        0.8560389233
 C         -5.8549515227        1.5614338889        1.4681524713
 H         -6.1829617529        0.6509200653        0.9664597018
 H         -6.2840350893        1.5440692348        2.4720048408
 C         -4.3243138935        1.5272242479        1.6362659736
 H         -3.9408055150        2.5496335133        1.7008767275
 H         -4.0878353048        1.0284694073        2.5810361108
 H         -5.9554698659        1.9544825233       -2.6201821009
 H         -5.7971141099        0.7693261457       -1.3403398823
 H         -4.1937157322        3.1348351463       -0.6914163428
 H         -3.7554429256        2.4856598862       -2.2776867083
 O         -2.7478728796        0.4439565249       -1.6175648951
 C         -2.0280280694       -0.6900234534       -1.2690326392
 O         -1.4018426916       -1.2101452072       -2.2106581814
 O         -2.8018627688       -0.7495600576        2.2673071458
 C         -1.2794145034       -2.3457847620        0.4585789870
 C          0.1863049073       -2.0842676738        0.2122054033
 C          1.0059948055       -2.9152944758       -0.5384963566
 C          2.3334710640       -2.5828419783       -0.7499751668
 C          2.8724490321       -1.4278535458       -0.2145252494
 C          2.0629296042       -0.5932848662        0.5456309371
 C          0.7357426790       -0.9290503559        0.7563635469
 H          0.1034671542       -0.2737406078        1.3439107958
 N          2.6042350679        0.5807464727        1.1053754089
 S          3.3341691135        1.6658181593        0.0476017396
 O          3.2430269110        2.9519504204        0.7053042159
 O          2.7666252053        1.5804133005       -1.2785111270
 C          5.0373365066        1.1476958986        0.0237762360
 C          5.7189710701        1.0971835806        1.2241300707
 C          7.0465416509        0.7001842045        1.2227053707
 C          7.6668385250        0.3652735251        0.0280740993
 C          6.9693639918        0.4242090027       -1.1687567839
 C          5.6405548499        0.8196198523       -1.1744077136
 H          5.0554658893        0.8748270504       -2.0787292300
 H          7.4529262180        0.1635684409       -2.0964676513
 H          8.7002686424        0.0566003674        0.0294392527
 H          7.5922447863        0.6529786881        2.1512325815
 H          5.2001286140        1.3694006418        2.1280126763
 H          1.9530896523        1.0710469879        1.7026555464
 H          3.9036124349       -1.1637337303       -0.3833778848
 H          2.9570607203       -3.2333113453       -1.3440021487
 H          0.6032810699       -3.8160552481       -0.9710504049
 H         -1.4301041765       -2.4504606224        1.5432520423
 C         -1.8076223119       -3.5855660752       -0.2297592765
 C         -1.6105175704       -4.9328845536        0.3964394949
 C         -2.9725051598       -4.3089154998        0.3745089339
 H         -3.7208774005       -4.7215949388       -0.2852377659
 H         -3.3735525256       -3.9190670524        1.2987671494
 H         -1.4252685001       -5.7788593297       -0.2478281309
 H         -1.0869480060       -4.9726569552        1.3394796740
 H         -1.7724055741       -3.5096436930       -1.3105795042
