  62
        -98.93954809
 C         -2.1405948501       -0.5991486410        0.6371559798
 C         -2.6473720005       -0.2810887406       -0.6463334599
 C         -3.2815010905        1.0399060194       -0.7723163794
 C         -3.2944504302        1.8704139091        0.2860104608
 C         -3.9517884602        3.2192521491        0.3107490513
 C         -5.4042264200        3.1191213290        0.7977729417
 C         -6.2184299903        2.0335914992        0.0937311317
 H         -5.8099403202        1.0548947192        0.3557717513
 H         -7.2329144701        2.0760503891        0.4960087920
 C         -6.2685266107        2.1680209796       -1.4346590583
 H         -7.2968835808        2.0095933197       -1.7661577580
 H         -5.9865577808        3.1800733397       -1.7271778081
 C         -5.3978574909        1.1615442698       -2.1894737188
 H         -5.6735802012        1.1989325101       -3.2466892287
 H         -5.6119394608        0.1512964597       -1.8316213890
 C         -3.8836937409        1.3921589398       -2.1032722191
 H         -3.6526476310        2.4249388798       -2.3717011789
 H         -3.4036709811        0.7319648500       -2.8317189295
 H         -5.8843975901        4.0884973491        0.6525880521
 H         -5.3963512597        2.9005240688        1.8681236017
 H         -3.3928861800        3.8624217390        0.9925543914
 H         -3.9213153705        3.6506697594       -0.6878068585
 O         -2.7391204399        1.5529009488        1.4841964506
 C         -2.1602777998        0.3120477588        1.6924031601
 O         -1.6935968795        0.1479364185        2.8391281299
 O         -2.5791574208       -1.0562531604       -1.6347871702
 C         -1.4996311801       -1.9528753710        0.8880254293
 C         -0.2598872903       -2.0958078608        0.0370678189
 C         -0.0160854606       -3.1797223806       -0.7942459715
 C          1.1487319892       -3.2390902304       -1.5410222018
 C          2.0908200192       -2.2299417705       -1.4745059218
 C          1.8629426395       -1.1460484907       -0.6351502815
 C          0.6980958597       -1.0914848908        0.1147128789
 H          0.5190302699       -0.2495642110        0.7732759791
 N          2.8059297195       -0.0990988907       -0.5640460515
 S          4.4202855696       -0.5426098608       -0.3260498821
 O          4.9470546792       -1.0353165905       -1.5734846224
 O          4.5302622499       -1.4400546411        0.8031921377
 C          5.1543087897        1.0346217591        0.0561149581
 C          5.4108795994        1.9114693194       -0.9808728417
 C          5.9640311095        3.1480840293       -0.6897610916
 C          6.2503034699        3.4849336190        0.6250867984
 C          5.9878776602        2.5938738087        1.6546241383
 C          5.4323011101        1.3560267188        1.3707560781
 H          5.2178434403        0.6295180986        2.1382555180
 H          6.2136573505        2.8572769384        2.6754410783
 H          6.6829993700        4.4471437289        0.8491529986
 H          6.1709961593        3.8434271495       -1.4870872314
 H          5.1810178691        1.6029901196       -1.9872162217
 H          2.5373915097        0.5900672591        0.1262911188
 H          3.0014597991       -2.2708821203       -2.0495069621
 H          1.3248568190       -4.0853623203       -2.1879511321
 H         -0.7376061606       -3.9768992806       -0.8632863415
 H         -1.1817383198       -1.9469841913        1.9412183792
 C         -2.5107957201       -3.0620288610        0.6914393493
 C         -2.3564008899       -4.3584513712        1.4261659889
 C         -3.4399414698       -3.3999611912        1.8170131195
 H         -4.4632009499       -3.6528684912        1.5832172197
 H         -3.3271330995       -2.8456478615        2.7377549796
 H         -2.6384447401       -5.2723977710        0.9256686187
 H         -1.5079182998       -4.4609370213        2.0858632286
 H         -2.9146685904       -3.0860980507       -0.3137635706
