  62
        -98.94332935
 C         -1.0954248291       -0.7162041700        0.9206106403
 C         -1.6655291792       -0.7218245206       -0.3771905297
 C         -2.3457115795        0.5175589791       -0.7847680301
 C         -2.2982911898        1.5951598894        0.0166829795
 C         -2.9760998501        2.9053451991       -0.2594806210
 C         -4.3922022101        2.9365356389        0.3331691991
 C         -5.2334963898        1.7071449586       -0.0095318705
 H         -4.7907429196        0.8286333189        0.4652429598
 H         -6.2190703098        1.8525966885        0.4377315495
 C         -5.3884499098        1.4433000880       -1.5136961504
 H         -6.4340203497        1.2075135577       -1.7225978803
 H         -5.1404895900        2.3444764279       -2.0757027107
 C         -4.5541680895        0.2743473880       -2.0410654200
 H         -4.8970766294        0.0399890076       -3.0523281999
 H         -4.7306226592       -0.6096010318       -1.4228409996
 C         -3.0408981995        0.5156092884       -2.1164595601
 H         -2.5955910093       -0.3081931417       -2.6826301598
 H         -2.8387583298        1.4435659683       -2.6562249004
 H         -4.3103753101        3.0031616494        1.4205062690
 H         -4.8959151204        3.8358989387       -0.0256281413
 H         -2.3831326003        3.7019330794        0.1936762287
 H         -3.0143629102        3.0660618987       -1.3354223910
 O         -1.6495933297        1.5976300800        1.2094176695
 C         -1.0411688594        0.4475216703        1.6900508999
 O         -0.4825446694        0.5937213909        2.7958334098
 H          1.4887835508       -0.4389216995        0.3444130701
 C          1.5188074010       -1.4371398397       -0.0662472795
 C          0.6293158613       -2.3885539597        0.4179393309
 C          0.6763179516       -3.6718021999       -0.1068830287
 C          1.5740985517       -3.9747997600       -1.1168351486
 C          2.4201813014       -3.0104353400       -1.6325439089
 C          2.3854209211       -1.7235228798       -1.1053217294
 N          3.2292484408       -0.7141820598       -1.5901762998
 S          2.7556835204        0.8894027101       -1.5467611704
 O          1.3356077603        1.0566389397       -1.7510148804
 O          3.6157760402        1.5337723000       -2.5183689406
 C          3.2304883803        1.4275886808        0.0824052694
 C          2.3009603601        2.0218420309        0.9115699692
 C          2.6907018601        2.4269083215        2.1782697191
 C          4.0012921801        2.2377093320        2.5882063191
 C          4.9271518003        1.6482253819        1.7400596593
 C          4.5409829803        1.2369921213        0.4749099594
 H          5.2286000204        0.7751269012       -0.2136052604
 H          5.9453554703        1.5045016523        2.0637670993
 H          4.2994718201        2.5514273524        3.5761050890
 H          1.9617581500        2.8706112615        2.8375822689
 H          1.2855426801        2.1420917605        0.5635966292
 H          3.7422716408       -0.9433158599       -2.4284808597
 H          3.0945284714       -3.2438064901       -2.4423595289
 H          1.5984438719       -4.9736343902       -1.5258748482
 H         -0.0085298982       -4.4242461199        0.2482251716
 C         -0.3474347388       -1.9221906896        1.4692198407
 H          0.2373435111       -1.5265114791        2.3164764906
 C         -1.2286976885       -3.0259582796        2.0311495912
 C         -2.5936396186       -2.7183536698        2.5696423811
 C         -2.4465996984       -3.5319817302        1.3208404214
 H         -2.6647150481       -4.5888904602        1.3725854218
 H         -2.6965512685       -3.0803762006        0.3745325612
 H         -2.9133504884       -3.2123030995        3.4749334413
 H         -2.9463329888       -1.7008233499        2.4784369807
 H         -0.6504027683       -3.7594483293        2.5847098014
 O         -1.6266726589       -1.7055980809       -1.1604062993
