  62
        -98.94342123
 C         -2.4875303176       -1.1252179507        0.0084848912
 C         -3.4617079650       -0.6235180526        0.9137959824
 C         -4.4528607400        0.3034861931        0.3603064663
 C         -4.4163566116        0.6109227935       -0.9485544325
 C         -5.3742176387        1.5152584555       -1.6752470637
 C         -5.0304501599        3.0071572400       -1.5663091101
 C         -5.2940852888        3.6373061430       -0.1981257910
 H         -5.2196163230        4.7191987416       -0.3245222923
 H         -6.3158022706        3.4156205813        0.1115845189
 C         -4.3142843695        3.2004002879        0.8999802321
 H         -3.4290158873        2.7526939326        0.4421143721
 H         -3.9764841225        4.0774381149        1.4565501614
 C         -4.8964979918        2.2168220485        1.9152466925
 H         -5.6990910414        2.7009289166        2.4759586076
 H         -4.1070948097        1.9464808127        2.6210987890
 C         -5.4437817277        0.9228029901        1.2988844373
 H         -5.6281567417        0.2093059870        2.1056354894
 H         -6.3837111953        1.1192817312        0.7835251996
 H         -5.6343131416        3.5348909496       -2.3081570600
 H         -3.9802740226        3.1441160406       -1.8345226447
 H         -6.3867425044        1.3462961221       -1.3075386388
 H         -5.3341135210        1.2283870471       -2.7283307907
 O         -3.4820879205        0.0964489053       -1.7888137231
 C         -2.4881009406       -0.7608679233       -1.3377454761
 O         -1.6981324709       -1.1099177460       -2.2399173943
 O         -3.5044389162       -0.9476829217        2.1299281667
 C         -1.4631929481       -2.0877797022        0.5856350324
 C         -0.1402107890       -1.4125313290        0.8609281153
 C          0.3640559938       -1.3368428641        2.1540032560
 C          1.5892427066       -0.7417010304        2.3992111273
 C          2.3336714021       -0.2073643023        1.3630065884
 C          1.8372697209       -0.2744936888        0.0677005522
 C          0.6121076857       -0.8783563972       -0.1757177386
 H          0.2297855449       -0.9250008243       -1.1849490519
 N          2.5767461249        0.2855669738       -0.9912779757
 S          4.1581842126       -0.2456193238       -1.1956091319
 O          4.4653508659       -0.0081009854       -2.5890770015
 O          4.3254004070       -1.6003928476       -0.7218684760
 C          5.1191448483        0.8701119343       -0.1939361177
 C          5.9282600392        0.3714083824        0.8082166721
 C          6.6760780331        1.2569680603        1.5687041642
 C          6.6024786429        2.6179186197        1.3143959526
 C          5.7868938068        3.1024859766        0.3024851339
 C          5.0378956398        2.2225189719       -0.4623094899
 H          4.3960645996        2.5569386009       -1.2602787948
 H          5.7320780452        4.1614238410        0.1076745802
 H          7.1845092550        3.3052968017        1.9077569270
 H          7.3113123326        0.8821292185        2.3550359538
 H          5.9492494327       -0.6941368913        0.9721609809
 H          2.0835605405        0.2566782878       -1.8728345130
 H          3.2872237094        0.2598589987        1.5475518751
 H          1.9681079403       -0.6910403380        3.4085056306
 H         -0.2167453063       -1.7410609326        2.9702725103
 H         -1.8833008519       -2.4004024314        1.5512216625
 C         -1.2580423617       -3.3251480926       -0.2675036190
 C         -0.7091128213       -4.5648316416        0.3696905221
 C         -2.1436394467       -4.5154888961       -0.0617115619
 H         -2.4454549281       -5.0876338950       -0.9261532383
 H         -2.9036895028       -4.4460702189        0.7028086012
 H         -0.0197638490       -5.1719292792       -0.1969366438
 H         -0.4967662489       -4.5310882087        1.4274828885
 H         -0.9525396291       -3.1041529235       -1.2822196814
