  62
        -98.94523480
 C         -1.4737927582       -1.2743091926       -0.3773231323
 C         -2.8089507151       -1.3807697965        0.0933990429
 C         -3.7869783473       -0.4679978386       -0.5054365544
 C         -3.3925952537        0.3969644871       -1.4569516294
 C         -4.2710664345        1.3852802098       -2.1750297447
 C         -4.4811434896        2.6996223629       -1.4109082146
 C         -5.3974372856        2.6028260077       -0.1902881715
 H         -5.6321041079        3.6245138360        0.1149845550
 H         -6.3345781496        2.1251687248       -0.4780001768
 C         -4.7842739154        1.8601891810        1.0053374499
 H         -3.7001573745        1.7984354356        0.8796232006
 H         -4.9655963811        2.4301515833        1.9195473031
 C         -5.3390217221        0.4534603099        1.2310598102
 H         -6.3974698586        0.5154782303        1.4934726037
 H         -4.8069289349        0.0085553544        2.0757491682
 C         -5.1876618849       -0.4862293990        0.0278504010
 H         -5.4038380060       -1.5047889116        0.3592208433
 H         -5.8961040367       -0.2139467991       -0.7541295783
 H         -4.9173187677        3.4172122187       -2.1098787957
 H         -3.5052517460        3.0854011297       -1.1051122065
 H         -5.2378279145        0.9288464362       -2.3896989980
 H         -3.7749756993        1.6128817319       -3.1209855612
 O         -2.1113203629        0.4530244176       -1.9019274010
 C         -1.1157669768       -0.3533562786       -1.3625363579
 O          0.0038558341       -0.1581779573       -1.8712893650
 O         -3.1683682679       -2.2111570943        0.9704281251
 C         -0.4464141698       -2.1775974871        0.2881298048
 C          0.2116413522       -1.4069877399        1.4089845889
 C         -0.2270816730       -1.5789577402        2.7178630527
 C          0.3370552706       -0.8516524278        3.7498020239
 C          1.3435918245        0.0614822848        3.4944818363
 C          1.7866142568        0.2459222596        2.1885600113
 C          1.2262608446       -0.4936824086        1.1566091403
 H          1.5532640785       -0.3262048105        0.1448431557
 N          2.8221867548        1.1482257017        1.9159753932
 S          2.8798224981        2.0197428121        0.4853068696
 O          3.7283598469        3.1503729056        0.8072909024
 O          1.5587514830        2.3419532029        0.0015524278
 C          3.7706140118        0.9481249678       -0.6214870135
 C          3.1784735722        0.4540775083       -1.7654146139
 C          3.9179353181       -0.3835620641       -2.5878574619
 C          5.2245371735       -0.7060985688       -2.2573800773
 C          5.8054439218       -0.1953587053       -1.1058352887
 C          5.0736104080        0.6402035451       -0.2791002604
 H          5.4874226819        1.0658740502        0.6197708822
 H          6.8222504012       -0.4476661144       -0.8514495443
 H          5.7920269874       -1.3594750416       -2.9013860992
 H          3.4606057704       -0.7816246769       -3.4799334963
 H          2.1519049689        0.7037205065       -1.9866723041
 H          3.1269302347        1.6991834777        2.7048359001
 H          1.7827854786        0.6340912699        4.2973885536
 H         -0.0133857458       -0.9922069160        4.7612281091
 H         -1.0308373203       -2.2735939537        2.9144889686
 H         -1.0336863983       -2.9859570131        0.7454431543
 C          0.5571173905       -2.7940322959       -0.6627625192
 C          1.3497748469       -3.9801025764       -0.2037126223
 C          0.2816664610       -4.1483324421       -1.2412304098
 H          0.5762466943       -4.3400743417       -2.2619627706
 H         -0.6369602586       -4.6388948555       -0.9537280604
 H          2.3816478807       -4.0577353309       -0.5092144704
 H          1.1541260164       -4.3562588501        0.7890984631
 H          1.0508105375       -2.0772911664       -1.3046112718
