  62
        -98.93791781
 C          1.7809837174        1.6268168801        0.0615555301
 C          1.6935872143        0.2641135215       -0.2982897965
 C          2.9452034970       -0.5160484499       -0.2403777569
 C          4.0776526661        0.0949841033        0.1519535494
 C          5.4658004963       -0.4799963109        0.2787123136
 C          5.5811998898       -1.8596487681        0.9454039017
 C          5.9640841821       -2.9753184390       -0.0284945623
 H          6.7096352309       -2.5873114069       -0.7256958484
 H          6.4353262760       -3.7841315911        0.5344341409
 C          4.8013227958       -3.5772563032       -0.8155258977
 H          4.1852820918       -4.1798613553       -0.1446708993
 H          5.2235895845       -4.2528588837       -1.5631290953
 C          3.8970403090       -2.5665581460       -1.5242002497
 H          4.4908166844       -1.7704401967       -1.9719226981
 H          3.3939892292       -3.0858910582       -2.3427797403
 C          2.8128820770       -1.9669511160       -0.6162203373
 H          1.8408020030       -2.0321840719       -1.1154256321
 H          2.7240841342       -2.5599197896        0.2987828495
 H          4.6505480980       -2.1039746790        1.4550887037
 H          6.3597553092       -1.7966169138        1.7073593351
 H          5.9206243581       -0.5089107111       -0.7145673218
 H          6.0266620697        0.2591090684        0.8552638987
 O          4.1135742933        1.4176124290        0.4864948339
 C          2.9834296835        2.2122684040        0.4532653424
 O          3.1716507284        3.3969098475        0.7960115198
 H         -2.0944959093        1.8984912978       -0.6080342163
 C         -1.8259883993        1.6611863183        0.4072045532
 C         -0.5442753542        1.8959809088        0.8779610181
 C         -0.2498783659        1.5723442256        2.2009206843
 C         -1.2086416533        1.0145624421        3.0233238391
 C         -2.4813433629        0.7586770776        2.5417951019
 C         -2.7880479177        1.0840243344        1.2270057635
 N         -4.0802665088        0.8614673128        0.7151726490
 S         -4.2910075659       -0.0544633186       -0.6710060637
 O         -3.5968161045        0.5550176142       -1.7746594184
 O         -5.7263417161       -0.1771734576       -0.8091213195
 C         -3.5994701702       -1.6519234941       -0.2787763454
 C         -4.4644896167       -2.6727044171        0.0679719377
 C         -3.9432682361       -3.9056308838        0.4234051990
 C         -2.5692174487       -4.0941512265        0.4361347672
 C         -1.7163892557       -3.0576809610        0.0912010769
 C         -2.2294691224       -1.8212959192       -0.2713818918
 H         -1.5720607561       -1.0105528627       -0.5428217659
 H         -0.6461938127       -3.1910828004        0.0997469571
 H         -2.1605390157       -5.0527792670        0.7148965744
 H         -4.6067187705       -4.7126001531        0.6900881631
 H         -5.5250882430       -2.4809089213        0.0404427765
 H         -4.7464058446        0.5608368758        1.4132437948
 H         -3.2309201846        0.3156379087        3.1799942586
 H         -0.9632281185        0.7693876202        4.0456658300
 H          0.7478528155        1.7641756173        2.5728920844
 C          0.5408036224        2.5011727606        0.0213352417
 H          0.8326912070        3.4635647088        0.4669688769
 C          0.1185054418        2.7404706809       -1.4132014289
 C         -0.6188155647        3.9913083526       -1.7820077704
 C          0.8074434340        3.8093673590       -2.2045526425
 H          1.0185365973        3.6246138673       -3.2472232916
 H          1.5696926135        4.3853145682       -1.6996654188
 H         -1.3913623819        3.9288504236       -2.5338609415
 H         -0.8272711558        4.6996022946       -0.9943108139
 H         -0.1427711703        1.8260050948       -1.9344722507
 O          0.6186487232       -0.2851129930       -0.6550046228
