  62
        -98.94531950
 C          2.3617811993        0.3729060281        0.0947715304
 C          1.5556560791       -0.2815661716       -0.8631399497
 C          1.5863158286       -1.7548103016       -0.8577466198
 C          2.3281921783       -2.3913835819        0.0649987903
 C          2.5882779577       -3.8686509220        0.2414961402
 C          1.4591773374       -4.8544577716       -0.0657656000
 C          0.0711161075       -4.4106811411        0.4174781099
 H         -0.3707072029       -5.2080132910        1.0183811098
 H          0.1562533277       -3.5301310412        1.0583322200
 C         -0.8870735923       -4.0912372207       -0.7307866102
 H         -1.9114958923       -4.1322970703       -0.3521762603
 H         -0.7876694125       -4.8544818507       -1.5061393202
 C         -0.6891823317       -2.7076078407       -1.3439751201
 H         -1.4123255115       -2.5859373704       -2.1544481902
 H         -0.9178293015       -1.9532896207       -0.5871718701
 C          0.7216438785       -2.4238429212       -1.8888478099
 H          1.1837687582       -3.3288918414       -2.2763225599
 H          0.6294334588       -1.7051796811       -2.7077143499
 H          1.7297320470       -5.7956073717        0.4168983000
 H          1.4229388974       -5.0499508815       -1.1362024200
 H          3.4604070977       -4.1251276723       -0.3689674697
 H          2.8894249275       -3.9789429122        1.2868226103
 O          3.0487653784       -1.7164037622        1.0085297904
 C          3.0821066889       -0.3350092322        1.0525800205
 O          3.7807797289        0.1371497875        1.9745614106
 H          0.4326726893        0.9893081987        1.6647141102
 C          0.1227582597        1.8489139188        1.0879572102
 C          1.0237429300        2.4609917186        0.2262385604
 C          0.6009131005        3.5725392688       -0.4926324996
 C         -0.6975445194        4.0362891292       -0.3691036097
 C         -1.6056040997        3.3908913695        0.4502985501
 C         -1.1891340602        2.2833977893        1.1796973801
 N         -2.0792241005        1.5682275696        2.0093061900
 S         -2.3863842611       -0.0246104503        1.5818250298
 O         -3.3674904414       -0.4870110000        2.5406480597
 O         -1.1530091113       -0.7652493007        1.5277101299
 C         -3.1510346308        0.0889127501       -0.0274355803
 C         -2.3825801406        0.3906507499       -1.1343512901
 C         -3.0142795804        0.5373891702       -2.3604707902
 C         -4.3880425104        0.3852940907       -2.4603889704
 C         -5.1445779307        0.0839671609       -1.3377556105
 C         -4.5226393009       -0.0605065294       -0.1088201204
 H         -5.0673658911       -0.2954893093        0.7913957995
 H         -6.2130729307       -0.0363405187       -1.4154176306
 H         -4.8704593203        0.5009096009       -3.4181712404
 H         -2.4170603702        0.7704177000       -3.2273522401
 H         -1.3120915806        0.4964799495       -1.0485998500
 H         -2.9606212104        2.0408272599        2.1594629499
 H         -2.6262387696        3.7348813599        0.5255384100
 H         -1.0116369290        4.9003439894       -0.9343427397
 H          1.2876482608        4.0728570585       -1.1555702795
 C          2.4171962598        1.8895386181        0.1300410205
 H          2.9622397498        2.1529244778        1.0489152206
 C          3.1948119501        2.4049845878       -1.0646217693
 C          3.9932993106        3.6690307175       -0.9631142392
 C          4.6913775201        2.3449454773       -1.0310998892
 H          5.2180918101        2.0823860872       -1.9362148391
 H          5.1491750599        1.9570011071       -0.1324110591
 H          4.0459550709        4.3170861276       -1.8249781191
 H          3.9891041907        4.1892922975       -0.0172119791
 H          2.7064151402        2.1792747381       -2.0057454894
 O          0.8559382795        0.3386893987       -1.7069129397
