  62
        -98.94323880
 C         -2.3775073276       -0.4786173436        0.1045599690
 C         -3.4513778388       -0.4302002997        1.0253425715
 C         -4.4456261238        0.6264805632        0.7978127096
 C         -4.2723415016        1.4820743680       -0.2264199929
 C         -5.2304605074        2.5749615110       -0.6005481321
 C         -6.2621310483        2.0830249465       -1.6253336164
 C         -6.9326877374        0.7637788782       -1.2421372674
 H         -7.6612257603        0.5307767626       -2.0217562723
 H         -6.1849383879       -0.0325634026       -1.2530384961
 C         -7.6334249078        0.7810726091        0.1235621569
 H         -7.8037421282        1.8108200794        0.4397464449
 H         -8.6120773088        0.3074694987        0.0209585143
 C         -6.8886685043        0.0289037905        1.2280814547
 H         -7.5654915815       -0.0826566351        2.0794124803
 H         -6.6336727708       -0.9752034800        0.8797160816
 C         -5.6095333849        0.6986839600        1.7459093486
 H         -5.2955394524        0.1630016933        2.6466492419
 H         -5.8212113849        1.7344228102        2.0191779561
 H         -7.0218125231        2.8569724300       -1.7489699228
 H         -5.7581759889        1.9447851787       -2.5846716906
 H         -4.6604105408        3.3964444456       -1.0376165316
 H         -5.7346185271        2.9316443279        0.2954979668
 O         -3.2155198080        1.4185028752       -1.0757201213
 C         -2.2463696671        0.4352108005       -0.9410070289
 O         -1.3435113351        0.4839546067       -1.7972258303
 O         -3.5693058902       -1.2295134507        1.9931139693
 C         -1.3170827599       -1.5521983568        0.2734505633
 C          0.0252490381       -0.9060585435        0.5110333218
 C          0.1639360460       -0.0399855782        1.5933670471
 C          1.3687306625        0.5837696825        1.8500987329
 C          2.4641131537        0.3613011399        1.0329196472
 C          2.3409279701       -0.5071062362       -0.0417061446
 C          1.1284704803       -1.1399439006       -0.2927801141
 H          1.0500933085       -1.8090641559       -1.1353288760
 N          3.4406983972       -0.7288892852       -0.8836843321
 S          4.9564045378       -0.9897592005       -0.2217627462
 O          5.6887809298       -1.7148320180       -1.2369809689
 O          4.8683548926       -1.6181896557        1.0758689339
 C          5.6480226318        0.6434798184       -0.0647423216
 C          6.1691486248        1.0563964064        1.1457367459
 C          6.7172250268        2.3260676799        1.2417074696
 C          6.7354862544        3.1553866624        0.1308975369
 C          6.2098741882        2.7248414084       -1.0782984608
 C          5.6614152182        1.4565275387       -1.1810269964
 H          5.2450270567        1.0855638935       -2.1027276360
 H          6.2250399211        3.3728315747       -1.9399062871
 H          7.1615423527        4.1432936834        0.2076088544
 H          7.1262237613        2.6626900418        2.1808014224
 H          6.1285983266        0.3795380335        1.9843948233
 H          3.2557607329       -1.3553669859       -1.6529348626
 H          3.4058641609        0.8488541148        1.2246077350
 H          1.4581023390        1.2537256351        2.6918755336
 H         -0.6923710713        0.1379568729        2.2297343038
 H         -1.5972088659       -2.0968737277        1.1871306159
 C         -1.3434530826       -2.5161396109       -0.8934101535
 C         -0.8152465894       -3.9091682389       -0.7284551015
 C         -2.2902284130       -3.6765009981       -0.8546641353
 H         -2.7831859693       -3.9707998232       -1.7691206900
 H         -2.9039739913       -3.7876469123        0.0272465186
 H         -0.2965186785       -4.3677456248       -1.5571021471
 H         -0.4249866006       -4.1835856827        0.2400874394
 H         -1.1997753529       -2.0225494585       -1.8482048061
