  62
        -98.94462933
 C         -1.6891429667       -1.4136547394        0.1621622098
 C         -1.6337337455       -0.3245000447       -0.7416849607
 C         -2.9327159024        0.2226642626       -1.1637877193
 C         -4.0675106370       -0.3246794897       -0.6925601509
 C         -5.4512034459        0.1716771449       -0.9942950552
 C         -5.9105589773        1.1999606782        0.0488361746
 C         -4.8889905951        2.3048724119        0.3192902903
 H         -5.3330290813        2.9877146415        1.0469728211
 H         -4.0037641384        1.8686142196        0.7884928907
 C         -4.4623868708        3.0936666292       -0.9266239416
 H         -5.1889926517        2.9446944357       -1.7262960390
 H         -4.4611414267        4.1583660567       -0.6836722965
 C         -3.0633224569        2.7550465574       -1.4452481247
 H         -2.3404615422        2.8168869802       -0.6267999514
 H         -2.7820434931        3.5120090164       -2.1826765540
 C         -2.9144253272        1.3841999590       -2.1170923764
 H         -3.6811252914        1.2658864345       -2.8856127419
 H         -1.9337561035        1.3603723775       -2.6013225885
 H         -6.8468718451        1.6444974187       -0.2931819448
 H         -6.1052223192        0.6773694202        0.9881958790
 H         -5.4643569826        0.6154653721       -1.9877420983
 H         -6.1335522513       -0.6797590425       -0.9766833833
 O         -4.0803835110       -1.3769242021        0.1646624416
 C         -2.8993282804       -1.9320972352        0.6268355963
 O         -3.0553720632       -2.8716292523        1.4328907705
 H          1.9796617216       -0.7047481900        0.4051774602
 C          1.4638097889       -0.4410392071        1.3107425011
 C          0.2534098350       -1.0388842001        1.6187237850
 C         -0.3837483306       -0.6852364064        2.8063327489
 C          0.1810253699        0.2416260127        3.6602146634
 C          1.3825614567        0.8508460541        3.3379008472
 C          2.0214623510        0.5123778013        2.1529412937
 N          3.2480971273        1.0997012507        1.7897669717
 S          3.3235862333        1.8793933011        0.2973662738
 O          4.4862535122        2.7375518938        0.4075251971
 O          2.0789233611        2.5449485367       -0.0069852209
 C          3.6775506049        0.5888323089       -0.8744030817
 C          4.9070247798       -0.0350624458       -0.7891892129
 C          5.2084677782       -1.0448167062       -1.6884270656
 C          4.2811045655       -1.4076389774       -2.6540442292
 C          3.0534192831       -0.7674983311       -2.7273101694
 C          2.7424440400        0.2429720491       -1.8298757955
 H          1.7835212435        0.7382684530       -1.8349417537
 H          2.3284210368       -1.0530478945       -3.4734031532
 H          4.5140064207       -2.1953993631       -3.3534081333
 H          6.1610965712       -1.5466186610       -1.6340045141
 H          5.5992605596        0.2841995827       -0.0280357446
 H          3.6368835944        1.7014921416        2.5031397100
 H          1.8197720527        1.5850345511        3.9983577376
 H         -0.3205810566        0.5010858261        4.5806701488
 H         -1.3299316852       -1.1508589878        3.0478783328
 C         -0.4154733156       -2.0405480158        0.7079016512
 H         -0.7402510057       -2.8901561210        1.3249324303
 C          0.4755666510       -2.5517364117       -0.4035868528
 C          1.5684899608       -3.5275575128       -0.0898778096
 C          0.3553423127       -3.9774863758       -0.8459205964
 H          0.4542871210       -4.1997598178       -1.8975992805
 H         -0.3651787735       -4.5998868367       -0.3351978861
 H          2.5036278130       -3.4391108338       -0.6218676836
 H          1.6724453006       -3.8461065353        0.9362448283
 H          0.6645430463       -1.8099737011       -1.1691579599
 O         -0.5642612646        0.1663685431       -1.1869371494
