  62
        -98.93312930
 C          2.1448652964        1.1383171001        0.1266420581
 C          1.9697375429       -0.0681131937       -0.5930806867
 C          2.6856362095       -1.2518728992       -0.0739467230
 C          3.4498032819       -1.1460104816        1.0276014841
 C          4.2475173531       -2.1819986206        1.7924077111
 C          4.6120666104       -3.5193392057        1.1519786619
 C          5.5600063317       -3.4243248703       -0.0423019094
 H          6.5356511742       -3.0827776474        0.3121812270
 H          5.6875173320       -4.4278552198       -0.4541477565
 C          5.1195333995       -2.4826750269       -1.1605629796
 H          5.1172238046       -1.4536434775       -0.7953996153
 H          5.8653414445       -2.5390275719       -1.9581107467
 C          3.7559357082       -2.7909104947       -1.7776124199
 H          3.6490707484       -2.1651518735       -2.6677522037
 H          3.7228026798       -3.8344171382       -2.0967221820
 C          2.5404898279       -2.5140179743       -0.8738231320
 H          1.6631379058       -2.3743302690       -1.5127315802
 H          2.3289184909       -3.3562191360       -0.2187341817
 H          3.7132616981       -4.0638963958        0.8778314862
 H          5.1147453494       -4.1056245851        1.9261203906
 H          5.1651503758       -1.6735091074        2.1044305790
 H          3.6781994261       -2.3815187234        2.7070843959
 O          3.5780984993        0.0369099397        1.6972477105
 C          2.9425388005        1.1870085883        1.2720551665
 O          3.1717694378        2.1863543629        1.9839351946
 H         -0.5478458496        0.6406426393       -0.1690110695
 C         -0.8019280402        1.5653924473        0.3257596056
 C          0.1231437684        2.5977807993        0.3911159205
 C         -0.2341499984        3.7792236279        1.0304271806
 C         -1.4923592375        3.9261646468        1.5855623938
 C         -2.4157354723        2.9005050937        1.5098882055
 C         -2.0644169700        1.7084895429        0.8831703720
 N         -2.9740517969        0.6419807512        0.8484585093
 S         -2.8708915778       -0.5440899868       -0.3449568023
 O         -1.8472073144       -1.4866427975        0.0284508810
 O         -2.7690465123        0.0643454311       -1.6516438001
 C         -4.4776390798       -1.2954219128       -0.1518983385
 C         -5.5077847870       -0.9167799745       -0.9918703256
 C         -6.7617167840       -1.4797459443       -0.8127180055
 C         -6.9643219449       -2.4049080483        0.2001894246
 C         -5.9206027871       -2.7766773163        1.0347229078
 C         -4.6644161136       -2.2180392335        0.8600831793
 H         -3.8211688982       -2.4815517221        1.4771850795
 H         -6.0807636351       -3.4986695854        1.8191140351
 H         -7.9408178550       -2.8414392335        0.3382665632
 H         -7.5736826313       -1.1952216100       -1.4622879006
 H         -5.3002067595       -0.2002493283       -1.7702759144
 H         -3.9278752197        0.9233700432        1.0273264845
 H         -3.3985189185        3.0123056967        1.9415360003
 H         -1.7577224523        4.8486103892        2.0791386182
 H          0.4870866477        4.5798741105        1.0997919282
 C          1.4871757953        2.4567990526       -0.2438399111
 H          2.1321010292        3.2391049413        0.1818542065
 C          1.3742363806        2.6944757710       -1.7376860779
 C          1.3655944158        4.0998088042       -2.2563926092
 C          2.5566749302        3.2208315652       -2.4911007553
 H          2.7395589300        2.8449847110       -3.4864048796
 H          3.4567529936        3.4204206320       -1.9274643354
 H          0.7251139792        4.3323674184       -3.0932104541
 H          1.4634833222        4.9012455653       -1.5400156073
 H          0.7463974356        1.9682246329       -2.2380725068
 O          1.2576506715       -0.1855891995       -1.6257330287
