  62
        -98.93941471
 C         -2.2538981250       -0.8161619371       -0.0439390869
 C         -3.2763391173       -0.6988296519        0.9286389171
 C         -4.1886842544        0.4500377112        0.8006875993
 C         -4.0017497110        1.3311578070       -0.1996458094
 C         -4.7340446162        2.6093579055       -0.5516375720
 C         -6.0932084186        2.9272914407        0.0665694949
 C         -7.2271166352        1.9995262459       -0.3684552029
 H         -8.1191543498        2.2588827317        0.2058253193
 H         -7.4441337275        2.1873668845       -1.4230402249
 C         -6.9531351627        0.5056809012       -0.2135819352
 H         -7.8383758879       -0.0337831916       -0.5610947630
 H         -6.1247873500        0.2154082916       -0.8631549987
 C         -6.6545353453        0.0395877958        1.2099725081
 H         -6.6407574380       -1.0535287108        1.2016058145
 H         -7.4572579509        0.3587169632        1.8773944466
 C         -5.3126582276        0.5140669073        1.7945825649
 H         -5.3950758890        1.5128172106        2.2165117165
 H         -5.0402796750       -0.1640628414        2.6084374382
 H         -6.3522233655        3.9388553287       -0.2578842106
 H         -6.0171514746        2.9547904358        1.1495065945
 H         -4.8289415539        2.6062099691       -1.6422497682
 H         -4.0425523507        3.4233785505       -0.3065287230
 O         -2.9829441212        1.1920615726       -1.0978424227
 C         -2.0950064236        0.1293472098       -1.0548834858
 O         -1.2413715529        0.1489312628       -1.9633164873
 O         -3.4213708067       -1.5211364072        1.8718485152
 C         -1.2968215346       -1.9923157682        0.0608577218
 C          0.0617331858       -1.4653308349        0.4503841096
 C          0.3267681711       -1.1909636533        1.7894934500
 C          1.5396278109       -0.6502216055        2.1718265618
 C          2.5107619855       -0.3628068825        1.2278036543
 C          2.2479162723       -0.6135425322       -0.1115815968
 C          1.0368086604       -1.1779670595       -0.4913898182
 H          0.8416383315       -1.3554473197       -1.5370135865
 N          3.2204988177       -0.3175962241       -1.0811279747
 S          4.0319361676        1.1475286389       -0.9887855573
 O          3.2321379139        2.1724843026       -0.3584132208
 O          4.4787249509        1.4177353184       -2.3382066826
 C          5.4517681800        0.7706054793        0.0204076546
 C          6.2289077097       -0.3164229888       -0.3294915394
 C          7.3418156526       -0.6187429770        0.4385792493
 C          7.6599627247        0.1683747069        1.5353771643
 C          6.8725606599        1.2588264141        1.8712212632
 C          5.7568765501        1.5658008264        1.1075682841
 H          5.1120071554        2.3999414346        1.3348827422
 H          7.1212566381        1.8702291631        2.7237638903
 H          8.5264233900       -0.0694369847        2.1320015185
 H          7.9560921912       -1.4663063521        0.1805950564
 H          5.9490128047       -0.9009454805       -1.1897839153
 H          2.9109724480       -0.4953916699       -2.0260191777
 H          3.4542095266        0.0701376529        1.5173433376
 H          1.7328129362       -0.4474710029        3.2143064492
 H         -0.4388255033       -1.3959547351        2.5247371289
 H         -1.6772240578       -2.6006926795        0.8922702121
 C         -1.2898848406       -2.8358786814       -1.1966553666
 C         -0.6764849668       -4.2027277266       -1.1575043448
 C         -2.1630661783       -4.0511771345       -1.2679595663
 H         -2.6386440691       -4.2879808052       -2.2080091285
 H         -2.7671092772       -4.2834845541       -0.4032394762
 H         -0.1289394572       -4.5477465140       -2.0211779987
 H         -0.2695377532       -4.5366956208       -0.2152328018
 H         -1.1798756107       -2.2550074418       -2.1044580081
