  62
        -98.94625566
 C         -2.3920015483       -0.4994990532       -0.0137473096
 C         -1.3996476777       -0.7110343325        0.9708328700
 C         -0.7299149159       -2.0170526416        0.9479211689
 C         -1.0856545350       -2.9182066215        0.0146917284
 C         -0.4042911932       -4.2353773404       -0.2230414627
 C          0.9053895962       -4.0005993480       -1.0045273730
 C          2.1754351169       -4.3554746268       -0.2304765636
 H          2.2817583284       -5.4424109067       -0.1994067443
 H          3.0189408362       -3.9547868253       -0.7972760335
 C          2.2476442466       -3.8324853577        1.2075368668
 H          3.2899365468       -3.9121290465        1.5233926164
 H          1.6710118077       -4.4865769490        1.8637439765
 C          1.7782764647       -2.3866136185        1.4154731379
 H          2.4482840443       -1.9078894481        2.1332118681
 H          1.8524100337       -1.8213662978        0.4852919783
 C          0.3461964147       -2.2569215308        1.9697751884
 H          0.0991081161       -3.1410683316        2.5638886679
 H          0.3048652437       -1.3887176914        2.6336623990
 H          0.8906033368       -4.5874133674       -1.9249155534
 H          0.9453575547       -2.9503411178       -1.3050415622
 H         -1.0861074725       -4.8583225009       -0.8027258130
 H         -0.2024538123       -4.7262172807        0.7265308569
 O         -2.0699037355       -2.6932439122       -0.8945165512
 C         -2.7233737872       -1.4729432230       -0.9528577902
 O         -3.5686978776       -1.3807662435       -1.8680411199
 O         -1.0767755586        0.1617767673        1.8208183605
 C         -3.0456898602        0.8660613860       -0.1297921885
 C         -1.9681964516        1.9134552176       -0.2884057281
 C         -1.9939488431        3.1467043671        0.3505980228
 C         -0.9485729844        4.0406775886        0.1915029031
 C          0.1510979358        3.7170980306       -0.5823815474
 C          0.1794973773        2.4909116611       -1.2367953483
 C         -0.8899415615        1.6197645396       -1.1137872186
 H         -0.8554665203        0.6736882600       -1.6344157892
 N          1.2811814176        2.0990149132       -2.0252822189
 S          2.1212107196        0.7214622740       -1.5700291900
 O          3.1998977495        0.6115129761       -2.5291839204
 O          1.2263801812       -0.4041638673       -1.4920064506
 C          2.8037723195        1.1158469238        0.0308374700
 C          1.9780631398        1.1433465920        1.1366605203
 C          2.5184624497        1.5085346018        2.3605401304
 C          3.8608875892        1.8388096736        2.4588945502
 C          4.6758868190        1.8068012355        1.3371007800
 C          4.1431352391        1.4472201756        0.1101171299
 H          4.7368211089        1.4058032270       -0.7888189603
 H          5.7205125386        2.0618269969        1.4141751499
 H          4.2730963291        2.1211304335        3.4148569903
 H          1.8759654099        1.5300432604        3.2262938606
 H          0.9368517002        0.8759358106        1.0481460504
 H          1.9432774266        2.8432437042       -2.1981641985
 H          0.9803080849        4.4015715918       -0.6800203272
 H         -0.9813848456        4.9944015782        0.6956606838
 H         -2.8289854233        3.4042843155        0.9814350932
 H         -3.6480028504        0.8417607158       -1.0500552883
 C         -3.9610534802        1.1212363539        1.0499346919
 C         -5.1828231714        1.9743506624        0.8915592229
 C         -5.3203665893        0.4915624621        1.0574944219
 H         -5.7061226185        0.1076433009        1.9898766917
 H         -5.5947947587       -0.0997611477        0.1956972616
 H         -5.4795507220        2.6084725514        1.7133646334
 H         -5.3785744422        2.3930841728       -0.0840796168
 H         -3.4231757500        1.1621114040        1.9900019618
