  62
        -98.93128815
 C         -2.2443094947       -0.9205245650       -0.2955867264
 C         -3.6192813245       -1.2383181273       -0.1559929182
 C         -4.5705319444       -0.1977123143       -0.5564089277
 C         -4.1111229125        0.9713237438       -1.0380400624
 C         -4.9531305345        2.1233227966       -1.5163717106
 C         -5.4370316343        3.0533577790       -0.3952616288
 C         -6.5341513169        2.4770563901        0.5007590792
 H         -6.9296999057        3.3036470723        1.0942691454
 H         -7.3486842264        2.1028173284       -0.1199977526
 C         -6.0580183554        1.3701129860        1.4517441127
 H         -6.4527620662        1.5554381864        2.4532313920
 H         -4.9683916310        1.3987997587        1.5270219845
 C         -6.4888079109       -0.0399953469        1.0482217635
 H         -6.0657290041       -0.7466055162        1.7666163824
 H         -7.5769401410       -0.1194108239        1.0981008042
 C         -6.0324343426       -0.4614775396       -0.3545725592
 H         -6.1928099176       -1.5372475051       -0.4589288132
 H         -6.6197225980        0.0556283791       -1.1129536256
 H         -4.5777467429        3.3381154413        0.2164529739
 H         -5.8225078077        3.9594071888       -0.8685375848
 H         -5.8114533287        1.7430605642       -2.0711445020
 H         -4.3264998055        2.7025309907       -2.1980413787
 O         -2.7846298436        1.2361019114       -1.1684783346
 C         -1.8152067470        0.3095186361       -0.7949007144
 O         -0.6497778638        0.7137027738       -0.9601475339
 O         -4.0303942678       -2.3460764438        0.2828248653
 C         -1.2415068189       -1.9937932244        0.1116394644
 C         -0.1912958803       -1.4053966371        1.0177235615
 C         -0.5589788411       -1.2182903726        2.3509177761
 C          0.3058074680       -0.6414481432        3.2592545407
 C          1.5678216478       -0.2383549347        2.8615429455
 C          1.9518038947       -0.4218673524        1.5392000696
 C          1.0764928241       -1.0007082463        0.6288622349
 H          1.4011151746       -1.0772670194       -0.3905164428
 N          3.2557678337       -0.0726400465        1.1345632675
 S          3.5711801480        0.7166152648       -0.3238650951
 O          3.0807776993        2.0774951725       -0.2748992297
 O          3.1415682784       -0.0995128821       -1.4279616667
 C          5.3546690699        0.7192458845       -0.2537095175
 C          6.0319757377        1.8717113181        0.0947787380
 C          7.4163548560        1.8419929294        0.1636701814
 C          8.0960716029        0.6657077530       -0.1130669180
 C          7.4025606821       -0.4836267890       -0.4626516108
 C          6.0190759823       -0.4595086995       -0.5343369446
 H          5.4384913283       -1.3242674510       -0.8101560740
 H          7.9342093112       -1.3960404393       -0.6797432581
 H          9.1730609636        0.6448270500       -0.0586108057
 H          7.9579933067        2.7347323191        0.4320057340
 H          5.4621479342        2.7652862745        0.2933007158
 H          3.7501063400        0.4200696629        1.8680329659
 H          2.2477584403        0.2157644261        3.5669207127
 H         -0.0045278727       -0.5006511724        4.2837656929
 H         -1.5485449774       -1.5219959270        2.6652012815
 H         -1.8354610348       -2.6833713942        0.7344069881
 C         -0.8489655158       -2.8173245867       -1.1081227409
 C          0.0536396774       -2.3760455759       -2.2189960571
 C          0.4736101703       -3.4917761293       -1.3074808272
 H          0.4748089311       -4.4966283188       -1.7034107617
 H          1.2578831337       -3.3001109599       -0.5928641418
 H         -0.2417563551       -2.6269912174       -3.2286331276
 H          0.5397894758       -1.4152876018       -2.1522214046
 H         -1.7170092135       -3.3864371314       -1.4349416217
