  62
        -98.92948950
 C         -2.5773265223       -1.0999615931        0.6631370101
 C         -2.6851020646        0.2164868429        1.1733362142
 C         -3.9104809981        0.9740606748        0.8570438005
 C         -4.8555013184        0.3813163121        0.1040355027
 C         -6.1678731573        0.9471454649       -0.3710171440
 C         -6.0030051278        1.9401383063       -1.5317674279
 C         -4.8768776194        2.9545035030       -1.3523485348
 H         -3.9312632533        2.4232611405       -1.2273664092
 H         -4.8014719824        3.5338310425       -2.2764837408
 C         -5.0646474082        3.9373684409       -0.1989456483
 H         -4.2486689650        4.6624244652       -0.2568284306
 H         -6.0016986956        4.4805452064       -0.3400279321
 C         -5.0589280296        3.3306679286        1.2062618534
 H         -4.9360578296        4.1546441860        1.9151828863
 H         -6.0123786218        2.8638359819        1.4384634812
 C         -3.9184456318        2.3530694308        1.4715380547
 H         -3.8405409686        2.1917600010        2.5535234019
 H         -2.9693131611        2.8196888657        1.1828690038
 H         -5.7944820047        1.3684709987       -2.4394007020
 H         -6.9494483589        2.4647516982       -1.6733773785
 H         -6.7638899017        0.1010024178       -0.7201363146
 H         -6.6985794356        1.4065293966        0.4576041444
 O         -4.7052439735       -0.8838053907       -0.3782007025
 C         -3.5797534564       -1.6546934546       -0.1326881223
 O         -3.6162021841       -2.7773877859       -0.6672373333
 O         -1.7857066391        0.7462909494        1.8829917679
 C         -1.3125057724       -1.8619190736        1.0143907410
 C         -0.2445024829       -1.6230795699       -0.0225094370
 C         -0.4961392859       -1.8217821836       -1.3763907296
 C          0.4946472870       -1.5875593618       -2.3122405483
 C          1.7502592256       -1.1531045628       -1.9234248430
 C          2.0080593872       -0.9380001495       -0.5763203497
 C          1.0102001968       -1.1754790111        0.3623049937
 H          1.2074618902       -0.9934058770        1.4103388408
 N          3.2863219901       -0.5182130376       -0.1559346981
 S          4.0109737499        0.7889096305       -0.9461131631
 O          3.1822839498        1.9692280801       -0.8270266212
 O          4.3511447656        0.3878324268       -2.2871420996
 C          5.4922607878        0.9622046061        0.0278802343
 C          5.5466144375        1.9179914254        1.0240738741
 C          6.6957805268        2.0196524666        1.7926459071
 C          7.7625327104        1.1660138695        1.5553516934
 C          7.6925689047        0.2115217554        0.5512829999
 C          6.5476366283        0.1057511967       -0.2218854406
 H          6.4513629081       -0.6139504476       -1.0177076834
 H          8.5251235744       -0.4486276996        0.3690227431
 H          8.6550361395        1.2471543803        2.1554917158
 H          6.7539226247        2.7624126922        2.5719914402
 H          4.6962273658        2.5652720285        1.1689038275
 H          3.3048427671       -0.3463659230        0.8414592689
 H          2.5227652837       -0.9608109663       -2.6494252913
 H          0.2884531360       -1.7461263358       -3.3604225139
 H         -1.4743793755       -2.1600777182       -1.6843588105
 H         -0.9647515083       -1.4018531462        1.9533519007
 C         -1.5509251055       -3.3381995927        1.2975711082
 C         -1.0751004855       -4.4438739967        0.4089598080
 C         -0.4070286607       -4.2085004341        1.7281652450
 H         -0.5663383421       -4.9169072488        2.5267449756
 H          0.5800624427       -3.7709721857        1.7128248627
 H         -1.7197211186       -5.3017183913        0.2943256363
 H         -0.5368026920       -4.1841581271       -0.4886908175
 H         -2.5011269854       -3.5026794903        1.7953432653
