  62
        -98.93127835
 C         -2.6250748547       -0.7013050181       -0.3854026060
 C         -2.0150179055       -1.4175800329        0.6718176855
 C         -0.9859540962       -2.4106358741        0.2904317730
 C         -0.7378907002       -2.6329909840       -1.0106854034
 C          0.3089049880       -3.5241833354       -1.6258941254
 C          1.7395311117       -3.2324839299       -1.1408071095
 C          2.3345363272       -4.3667935991       -0.3083254072
 H          2.0713665000       -5.3187461841       -0.7743750215
 H          3.4231307899       -4.2799769621       -0.3271225914
 C          1.8964821091       -4.3776277398        1.1538083973
 H          2.3225906863       -3.5079254212        1.6595282018
 H          2.3224840810       -5.2701194417        1.6187931767
 C          0.3837363111       -4.3757384513        1.3948504772
 H          0.2070882292       -4.8485033111        2.3638597416
 H         -0.1309938422       -4.9791121344        0.6492339249
 C         -0.2381133858       -2.9766787829        1.4680733282
 H         -0.9655177456       -2.9502321759        2.2872133547
 H          0.5265361868       -2.2374944087        1.7382824407
 H          2.3714631705       -3.0772690971       -2.0170372750
 H          1.7442398548       -2.2989817511       -0.5737836461
 H          0.0554692013       -4.5701779367       -1.4468214205
 H          0.2367566196       -3.3542770531       -2.7020330776
 O         -1.4579035269       -2.0235802000       -1.9978580877
 C         -2.3395450074       -1.0004693979       -1.7183803640
 O         -2.8296774462       -0.4525496312       -2.7289075960
 O         -2.2858991129       -1.2445629355        1.8887945097
 C         -3.4599233506        0.5535792206       -0.1810453718
 C         -2.5328979567        1.7406896805       -0.3070072153
 C         -2.8976076782        2.8849161326       -1.0066424457
 C         -1.9986865424        3.9249377213       -1.1711978251
 C         -0.7082257180        3.8279895377       -0.6818859678
 C         -0.3344771375        2.6867728005        0.0181301063
 C         -1.2568343039        1.6758247456        0.2330339775
 H         -0.9463337595        0.8069102490        0.7935774208
 N          0.9708543096        2.5043880750        0.5061031613
 S          1.6147092922        0.9465460274        0.3013967917
 O          1.1314080655        0.3722940892       -0.9322302246
 O          1.3879273709        0.1870884096        1.5050854623
 C          3.3527774785        1.3264835958        0.1664948108
 C          4.0839285640        1.5336051601        1.3211225513
 C          5.4247789159        1.8670876770        1.2133596542
 C          6.0083700747        1.9880095057       -0.0391691411
 C          5.2624424973        1.7745232879       -1.1886845478
 C          3.9204578829        1.4422087799       -1.0881101786
 H          3.3013380375        1.2587348042       -1.9518902514
 H          5.7190881374        1.8650453176       -2.1610501420
 H          7.0520555205        2.2473765074       -0.1201761988
 H          6.0084722442        2.0305195375        2.1047651146
 H          3.5885958097        1.4189998735        2.2712416103
 H          1.6145921939        3.2147769578        0.1839801022
 H          0.0050842378        4.6210199461       -0.8477465720
 H         -2.2962834992        4.8082502246       -1.7155590134
 H         -3.8819629058        2.9444028328       -1.4473434415
 H         -4.1613251790        0.5938524098       -1.0305467726
 C         -4.2830073032        0.5701151966        1.0962949557
 C         -3.8949433422        1.3700001730        2.2996080826
 C         -5.0678198529        1.7930834714        1.4703047326
 H         -6.0601272724        1.6622264620        1.8742184939
 H         -4.9513567364        2.6711318243        0.8537837894
 H         -4.0671603225        0.9295148555        3.2694371509
 H         -2.9893201051        1.9549095509        2.2460088403
 H         -4.7522032481       -0.3886919803        1.2870672856
