  62
        -98.94788652
 C         -0.7924322004       -1.1239164704        0.5901969302
 C         -1.3141052901       -0.7361566811       -0.6673813501
 C         -2.2460854803        0.4001426488       -0.6479433310
 C         -2.4807701107        1.0399159093        0.5115481086
 C         -3.4849707210        2.1402027292        0.6935935778
 C         -4.8540793610        1.5727588592        1.0965173877
 C         -5.3355006206        0.4252486087        0.2082849081
 H         -4.6748306005       -0.4338288211        0.3460648587
 H         -6.3237989006        0.1299112887        0.5675388280
 C         -5.4158564902        0.7681108279       -1.2859480321
 H         -6.3612673700        0.3902366476       -1.6808824422
 H         -5.4202010503        1.8505304479       -1.4177670626
 C         -4.3009623698        0.1573339877       -2.1371002915
 H         -4.5707431195        0.2799233971       -3.1893614816
 H         -4.2360793297       -0.9154915322       -1.9392576409
 C         -2.9072033600        0.7691821980       -1.9457057814
 H         -2.2591652597        0.3729020877       -2.7324112510
 H         -2.9658695501        1.8525531779       -2.0578341119
 H         -5.5842112711        2.3838702191        1.0727461771
 H         -4.7885850512        1.2052030597        2.1233231679
 H         -3.5766578008        2.7029122688       -0.2325944425
 H         -3.1345843913        2.8048772597        1.4841456076
 O         -1.8653322210        0.7111852900        1.6771043690
 C         -1.0317649209       -0.3923882499        1.7526050098
 O         -0.5713731112       -0.6138881192        2.8920005300
 O         -1.0374137897       -1.3199326816       -1.7463604598
 C          0.0724046697       -2.3681072902        0.6994229611
 C          1.2884906600       -2.2220640005       -0.1801232286
 C          1.6140966604       -3.1003642809       -1.2044644081
 C          2.7336869806       -2.8746064611       -1.9863740679
 C          3.5476341104       -1.7803523509       -1.7621835582
 C          3.2400267499       -0.9054060804       -0.7245922087
 C          2.1191475597       -1.1329268302        0.0567217711
 H          1.8867583794       -0.4596818098        0.8701660507
 N          4.0629810197        0.1946315198       -0.4614551590
 S          3.6221855492        1.4563890603        0.5167967102
 O          4.6061205691        2.4796903503        0.2287238300
 O          3.5552501889        1.0292279409        1.8925845204
 C          2.0256223593        2.0424654997       -0.0225008205
 C          1.6761725297        1.9975947390       -1.3568496006
 C          0.4730727397        2.5597231986       -1.7522274312
 C         -0.3470373007        3.1683894190       -0.8161133818
 C          0.0144077289        3.2004456997        0.5211160783
 C          1.2090929889        2.6280301701        0.9238171289
 H          1.5215522786        2.6185103806        1.9564373290
 H         -0.6261818914        3.6671492900        1.2520284779
 H         -1.2719512607        3.6249346787       -1.1292879323
 H          0.1814329500        2.5235015581       -2.7893477513
 H          2.3318315999        1.5266887588       -2.0709475502
 H          4.7498109398        0.4318358096       -1.1595489589
 H          4.4167084905       -1.6023809611       -2.3763182780
 H          2.9725094909       -3.5586224715       -2.7863958075
 H          0.9872836506       -3.9541240411       -1.3999724579
 H          0.4135119194       -2.4108132796        1.7441100812
 C         -0.7555774800       -3.6014748205        0.4034303814
 C         -0.3538869999       -4.9288304501        0.9701721022
 C         -1.5580341002       -4.2171954001        1.5082697215
 H         -2.5368693101       -4.6109001703        1.2784759914
 H         -1.4910086106       -3.7591583996        2.4847760113
 H         -0.5083710996       -5.8146490405        0.3730036526
 H          0.5324434499       -4.9605927397        1.5857283725
 H         -1.2030023897       -3.5790525411       -0.5834908687
