  62
        -98.94491101
 C         -1.9198663560       -0.1540341904        0.0682229970
 C         -2.9341848567       -0.9996784970        0.5781968418
 C         -4.2469549356       -0.3759795393        0.7752463681
 C         -4.4124255121        0.9306781515        0.4999586633
 C         -5.6837745313        1.7165853374        0.6742118838
 C         -6.6587203651        1.5966274944       -0.5051646645
 C         -7.3744784936        0.2504357178       -0.6235198961
 H         -7.8365784218        0.0009043452        0.3321202881
 H         -8.1788741214        0.3785121778       -1.3505955923
 C         -6.4753937050       -0.9066345471       -1.0811288172
 H         -6.9849293944       -1.4773389068       -1.8608140532
 H         -5.5618110165       -0.5044661604       -1.5252116613
 C         -6.0957061701       -1.8903156605        0.0257198520
 H         -6.9921010004       -2.3986127941        0.3877664043
 H         -5.4295237712       -2.6446272295       -0.4005899474
 C         -5.3810164178       -1.2484549019        1.2220791505
 H         -6.0892553863       -0.6763709032        1.8208726136
 H         -4.9626566446       -2.0465251755        1.8402280043
 H         -7.4143288665        2.3762125892       -0.3834530811
 H         -6.1149218420        1.8031680423       -1.4299419983
 H         -6.1829155640        1.4078752712        1.5931618462
 H         -5.3898883133        2.7638294787        0.7725450424
 O         -3.4040929371        1.7162610574        0.0358820343
 C         -2.1413116302        1.1945015985       -0.2103003284
 O         -1.3254069639        2.0210106512       -0.6605166140
 O         -2.7483961326       -2.2133482819        0.8613072195
 C         -0.5416432553       -0.7389810898       -0.1858768772
 C          0.4871386879        0.0117236894        0.6213413536
 C          0.3166430255        0.0916322032        2.0022317380
 C          1.2102748547        0.7936264197        2.7857459592
 C          2.3023658899        1.4215658764        2.2113210299
 C          2.4860729087        1.3437206171        0.8369500789
 C          1.5846225297        0.6356771089        0.0513400817
 H          1.7442077507        0.6102002864       -1.0129471826
 N          3.5766987842        1.9857915497        0.2282964046
 S          4.4941190966        1.1950827101       -0.9226931526
 O          5.7011828194        1.9847735282       -1.0276210399
 O          3.7404566047        1.0179997618       -2.1368202233
 C          4.8638162186       -0.3832609261       -0.1796464071
 C          4.0746675653       -1.4777286097       -0.4686645199
 C          4.3324763411       -2.6766726274        0.1774969437
 C          5.3678591912       -2.7600234629        1.0953471251
 C          6.1552356982       -1.6520873483        1.3706898618
 C          5.8996919483       -0.4498152630        0.7320740194
 H          6.4934531786        0.4321843734        0.9097164901
 H          6.9633066432       -1.7217011185        2.0809253968
 H          5.5631510322       -3.6949624292        1.5965012673
 H          3.7224496447       -3.5395961893       -0.0373235071
 H          3.2819748980       -1.3762854539       -1.1910608129
 H          4.1689366568        2.4949196061        0.8679605083
 H          2.9981578680        1.9786731068        2.8201322592
 H          1.0593427791        0.8527317575        3.8530673331
 H         -0.5387282755       -0.3963518554        2.4493990917
 H         -0.5921918058       -1.7705163935        0.1931973568
 C         -0.2510994738       -0.7815824931       -1.6705814258
 C          0.6554460331       -1.8351924020       -2.2303224061
 C         -0.8191741500       -1.8999066971       -2.4901001088
 H         -1.1816344306       -1.6787588810       -3.4828529910
 H         -1.3968809037       -2.6508978415       -1.9711271720
 H          1.3128437889       -1.5692007866       -3.0451767161
 H          1.0706833761       -2.5522288942       -1.5380248723
 H         -0.2314165870        0.2032563480       -2.1246971304
