  62
        -98.93559716
 C         -2.1211431207       -0.8902635405       -0.4044872086
 C         -3.1416629775       -0.6882998814        0.5596476414
 C         -3.7307706805        0.6580646263        0.6484508287
 C         -3.2765309720        1.6277708767       -0.1667728477
 C         -3.6353710061        3.0952785418       -0.2735189987
 C         -4.8791225826        3.6466995472        0.4182276532
 C         -6.2039929839        3.1581977615       -0.1668915555
 H         -7.0136519851        3.5250978521        0.4674648837
 H         -6.3296713901        3.6023154731       -1.1575011923
 C         -6.3386405209        1.6454022066       -0.3205913415
 H         -7.3178723659        1.4402153455       -0.7614246509
 H         -5.5866709323        1.2796585703       -1.0226599423
 C         -6.2371491062        0.8450602517        0.9761873510
 H         -6.9611698575        1.2240620657        1.7000083705
 H         -6.5042085410       -0.1898528076        0.7462999989
 C         -4.8482326758        0.8274753048        1.6374484954
 H         -4.8012538995       -0.0396396099        2.3026885780
 H         -4.6887751566        1.7135710544        2.2474793212
 H         -4.8345640089        3.4474945893        1.4849122168
 H         -4.8457800202        4.7329845758        0.2981911585
 H         -2.7600110228        3.6383905978        0.1005086203
 H         -3.6957496664        3.3110366678       -1.3450715629
 O         -2.2865584662        1.3904246652       -1.0743581070
 C         -1.6852040103        0.1516074042       -1.2205007691
 O         -0.8053116310        0.1348052401       -2.1056325227
 O         -3.5469903314       -1.6042274488        1.3243984366
 C         -1.5067813804       -2.2797850597       -0.4710380612
 C         -0.1946111439       -2.2924606349        0.2765376989
 C         -0.0706161440       -2.9573197328        1.4907960761
 C          1.1200734130       -2.9222252341        2.1959719402
 C          2.2091644832       -2.2214265561        1.7090250021
 C          2.0909049976       -1.5478802545        0.5006465086
 C          0.9022906704       -1.5963594145       -0.2114238025
 H          0.8129880901       -1.0525268160       -1.1402816787
 N          3.1908237743       -0.8092653630       -0.0035993351
 S          3.5892248383        0.5572377281        0.9120841155
 O          3.9886393854        0.1249622085        2.2268549010
 O          2.5149799035        1.5281512299        0.8619481936
 C          5.0047763501        1.1545700683        0.0102723439
 C          4.8148513016        2.0611477439       -1.0148320320
 C          5.9141795014        2.4924666814       -1.7404526493
 C          7.1769494250        2.0093009404       -1.4320485053
 C          7.3512512027        1.0992885085       -0.4001118642
 C          6.2562587840        0.6643304688        0.3293290050
 H          6.3429258198       -0.0360466486        1.1432654195
 H          8.3349179482        0.7276592293       -0.1627429900
 H          8.0301444903        2.3464054166       -1.9992093155
 H          5.7806835158        3.2012068082       -2.5419686959
 H          3.8163433214        2.4175025352       -1.2145945823
 H          2.9901132651       -0.4878988919       -0.9437372702
 H          3.1332424572       -2.1653655976        2.2600552022
 H          1.1999510123       -3.4424736948        3.1385425804
 H         -0.9240208315       -3.4855227029        1.8910736132
 H         -2.2067079219       -2.9288183286        0.0718741120
 C         -1.3550883685       -2.8103923635       -1.8824220139
 C         -1.1961374309       -4.2862492538       -2.0869053317
 C         -2.4692321347       -3.6063094363       -2.4901306866
 H         -2.6777035486       -3.4783382890       -3.5416963411
 H         -3.3504172067       -3.7734268413       -1.8880381373
 H         -0.5280600905       -4.6293592655       -2.8616581443
 H         -1.2136238524       -4.9154579313       -1.2099615785
 H         -0.8063106168       -2.1476750964       -2.5384183465
