  62
        -98.93812605
 C         -0.8735850191       -1.2587678301       -0.3252228897
 C         -1.9824918191       -1.3742471705        0.5533039603
 C         -2.9364205792       -0.2589652506        0.5571425907
 C         -2.7152853694        0.8017785397       -0.2390417390
 C         -3.5579408695        2.0462190896       -0.3329335186
 C         -4.9848426595        1.8604615696       -0.8851526687
 C         -6.0593504894        1.6677500691        0.1922396613
 H         -5.7071337995        2.1122866489        1.1237391714
 H         -6.9534770795        2.2218503591       -0.1007088085
 C         -6.4957322993        0.2222647190        0.4498392509
 H         -7.0560006592        0.2040898487        1.3872131909
 H         -7.1765488492       -0.0919312908       -0.3447433692
 C         -5.3723775691       -0.8121876109        0.5245934706
 H         -5.0041924691       -1.0278312505       -0.4813367895
 H         -5.7938419290       -1.7453171910        0.9039045403
 C         -4.1719137492       -0.3985371610        1.3982062007
 H         -4.3834814993        0.5288535488        1.9278637709
 H         -3.9625041490       -1.1771046312        2.1342061304
 H         -5.2267048796        2.7633858097       -1.4480821684
 H         -4.9976496094        1.0291852398       -1.5895345989
 H         -3.6129982495        2.5074310293        0.6553438915
 H         -3.0077849896        2.7206024499       -0.9911452885
 O         -1.6354155494        0.8802934300       -1.0602642890
 C         -0.6937826993       -0.1360052398       -1.1334708294
 O          0.2202950307        0.0971475805       -1.9479833393
 O         -2.1664448989       -2.3704258107        1.3025363200
 C          0.1121157110       -2.4158803700       -0.3300138001
 C          1.2960385610       -2.0942011101        0.5497295600
 C          1.4610695011       -2.7488410504        1.7656015398
 C          2.5306967111       -2.4477173605        2.5891610599
 C          3.4467610210       -1.4797437403        2.2212951501
 C          3.2860312609       -0.8132492900        1.0102389403
 C          2.2209898809       -1.1274876799        0.1779590603
 H          2.1085537508       -0.6023979096       -0.7573595996
 N          4.1977027108        0.1777821303        0.6285379806
 S          3.8035482106        1.4057052505       -0.4238728691
 O          3.7968478806        0.9202220209       -1.7801587292
 O          4.7942361405        2.4269485406       -0.1410848288
 C          2.2009767905        2.0394573102        0.0409173112
 C          1.7780205206        1.9833000098        1.3535244512
 C          0.5625185405        2.5571349095        1.6904849814
 C         -0.1960224496        3.1919605197        0.7203512616
 C          0.2461449203        3.2466838101       -0.5913459984
 C          1.4528639904        2.6611574604       -0.9371928186
 H          1.8192649804        2.6597202207       -1.9509719586
 H         -0.3468385497        3.7319226003       -1.3499770083
 H         -1.1387816797        3.6431264295        0.9870153017
 H          0.2121465205        2.5065277692        2.7091416814
 H          2.3818577106        1.4914793296        2.0987187710
 H          4.8563687807        0.4693920701        1.3347456806
 H          4.2803849610       -1.2369193404        2.8622478902
 H          2.6489655512       -2.9656041408        3.5286307497
 H          0.7332892812       -3.4876694006        2.0670667196
 H         -0.4291548488       -3.2511766102        0.1353826297
 C          0.5490416611       -2.8466757195       -1.7151324402
 C          1.0749568612       -4.2369063694       -1.9055304706
 C         -0.2670701988       -3.8607407594       -2.4565893805
 H         -0.3768330989       -3.7512993191       -3.5251175204
 H         -1.1469587288       -4.2503039196       -1.9652729406
 H          1.8913346712       -4.3873425491       -2.5951863107
 H          1.1038359813       -4.8837630396       -1.0416529908
 H          1.0018611709       -2.0539139193       -2.2963238400
