  62
        -98.93835472
 C         -1.8326692162       -0.4038441977       -0.0139928659
 C         -2.9259239299       -0.4772605279        0.8892289606
 C         -4.0774021056        0.3978293289        0.6202401677
 C         -4.0419280825        1.2194017902       -0.4422969727
 C         -5.0742919833        2.2219498325       -0.8936197196
 C         -6.5473665188        1.7952332667       -0.8387396303
 C         -6.8025152132        0.3065412366       -1.1165953107
 H         -7.5719598456        0.2159692223       -1.8855854684
 H         -5.8969557079       -0.1622061759       -1.5054849776
 C         -7.2818267505       -0.4579659433        0.1197506364
 H         -8.0204257473        0.1522584801        0.6441504304
 H         -7.7850968276       -1.3716116038       -0.2056873330
 C         -6.1858271809       -0.8703952165        1.1016293690
 H         -5.5697400644       -1.6579798115        0.6595713091
 H         -6.6681452187       -1.2987472789        1.9835199371
 C         -5.2442785274        0.2572974088        1.5549169900
 H         -5.7807746830        1.1957546354        1.6722069104
 H         -4.8225477850       -0.0258058849        2.5231370465
 H         -6.9649577539        2.0515492534        0.1339107110
 H         -7.0777869953        2.3997350928       -1.5765489114
 H         -4.9434924427        3.1334694550       -0.3028366433
 H         -4.8020856431        2.4657215456       -1.9235266692
 O         -2.9704882787        1.2662241417       -1.2806018370
 C         -1.8500742520        0.4704673515       -1.0990364545
 O         -0.9730836653        0.6532884320       -1.9688691139
 H          0.8146094887        0.7301869444       -0.6979733317
 C          1.1453290088        0.4284311432        0.2847095532
 C          0.4811168977       -0.5984350208        0.9406748282
 C          0.9144215279       -0.9656443872        2.2089681896
 C          1.9853433559       -0.3208780958        2.8041355260
 C          2.6457701083        0.7009638417        2.1463709122
 C          2.2140120935        1.0793936712        0.8817400753
 N          2.8941926819        2.1076267524        0.1945039156
 S          4.5220819795        1.8080839985       -0.0794372170
 O          5.2637318174        2.0877471675        1.1246486997
 O          4.8782261061        2.5939124672       -1.2394530397
 C          4.5913407816        0.0637386195       -0.4457690009
 C          5.0892307255       -0.8176096285        0.4919280258
 C          5.0592025188       -2.1751421004        0.2160199788
 C          4.5295170219       -2.6249340464       -0.9831358258
 C          4.0342197667       -1.7261989819       -1.9154826602
 C          4.0603460421       -0.3681950736       -1.6448425571
 H          3.6850178346        0.3583953624       -2.3481091533
 H          3.6233458045       -2.0761333068       -2.8491647524
 H          4.5029014249       -3.6825229705       -1.1937347013
 H          5.4435069475       -2.8770430932        0.9382527883
 H          5.4909131567       -0.4250351672        1.4114600671
 H          2.4401545102        2.3595073637       -0.6725189483
 H          3.4873249334        1.2106142508        2.5872009193
 H          2.3101790319       -0.6177358769        3.7895520577
 H          0.3986995117       -1.7568335521        2.7330156139
 C         -0.6581786013       -1.3256541217        0.2678001004
 H         -1.0449449291       -2.0681695271        0.9783658345
 C         -0.1548827989       -2.0547956248       -0.9639671510
 C          0.6447942506       -3.3091458745       -0.7873601626
 C         -0.7505796475       -3.3795445678       -1.3297753953
 H         -0.8906425853       -3.6094380029       -2.3753992282
 H         -1.5284089932       -3.7715942697       -0.6906427069
 H          0.8144082683       -3.6548276952        0.2207592903
 H          1.4686042584       -3.4911674580       -1.4592315606
 H          0.1179861723       -1.3915933178       -1.7742047321
 O         -2.9369177326       -1.2464839156        1.8862653297
