  62
        -98.93259204
 C          2.4087059651        0.8941053180        0.8247953310
 C          3.2176907548        0.5290367650       -0.2775349911
 C          3.9857114906       -0.7217543943       -0.1355741947
 C          3.8622792157       -1.4524787808        0.9852670705
 C          4.5751876381       -2.7270931938        1.3626830222
 C          4.7411290878       -3.7974556851        0.2756912625
 C          3.5875631520       -3.8806027300       -0.7345726855
 H          3.2533781568       -4.9172189262       -0.8071104183
 H          2.7396263456       -3.2885808069       -0.3856143107
 C          3.9876226752       -3.4175725298       -2.1374781306
 H          4.9727960687       -3.8257344680       -2.3737098158
 H          3.2801652973       -3.8322613006       -2.8595532478
 C          4.0105796017       -1.9038786139       -2.3461933301
 H          2.9898682561       -1.5111342792       -2.3341511788
 H          4.4152505270       -1.7077619771       -3.3420524810
 C          4.8288510698       -1.1068478284       -1.3170964381
 H          5.7206733652       -1.6508013341       -1.0156108394
 H          5.1347417258       -0.1683411064       -1.7872313756
 H          5.6727177421       -3.6294334411       -0.2626928345
 H          4.8444565819       -4.7544288246        0.7900376354
 H          5.5609466910       -2.4601754130        1.7547791235
 H          3.9991154327       -3.1378485704        2.1953743085
 O          3.0358157544       -1.0826152539        2.0054806866
 C          2.2894574046        0.0795582633        1.9500105493
 O          1.5639008764        0.2721602581        2.9482911191
 H         -0.4762349018        0.5285133360        0.9954287090
 C         -0.5251922923        1.0805139105        0.0643371673
 C          0.4737631006        2.0059734352       -0.2167281414
 C          0.4073419543        2.7146176131       -1.4077297537
 C         -0.6299605541        2.4875673316       -2.2970227463
 C         -1.6175504820        1.5614421419       -2.0183667439
 C         -1.5644976130        0.8519862299       -0.8243813319
 N         -2.5620214265       -0.1004512478       -0.5315468795
 S         -4.1612131999        0.4050524565       -0.7575166901
 O         -4.4817777901        0.2837737352       -2.1574789532
 O         -4.3524642122        1.7160116537       -0.1780057854
 C         -5.0544711569       -0.8233740245        0.1732538642
 C         -5.3238854843       -2.0422075670       -0.4197088003
 C         -6.0028054936       -3.0052452264        0.3095519846
 C         -6.3981167010       -2.7352792046        1.6114099987
 C         -6.1209006585       -1.5070557062        2.1925610274
 C         -5.4411128340       -0.5396825858        1.4692615726
 H         -5.2126789731        0.4319501482        1.8775877331
 H         -6.4314358088       -1.2991300551        3.2038945280
 H         -6.9282131633       -3.4856557368        2.1763506958
 H         -6.2225563745       -3.9606484842       -0.1388785908
 H         -5.0059632961       -2.2032859335       -1.4365033113
 H         -2.4437198573       -0.4877221445        0.3953964946
 H         -2.4332980194        1.3849082116       -2.7007048114
 H         -0.6695672106        3.0415006548       -3.2229726119
 H          1.1710969783        3.4358706839       -1.6459664595
 C          1.5800177062        2.1683059272        0.7984565723
 H          1.1119416931        2.2405443275        1.7905371940
 C          2.4445728356        3.3909344701        0.5818768455
 C          1.9155593093        4.7419112867        0.9556683505
 C          2.9996462523        4.1086339139        1.7737752073
 H          3.9979449259        4.5149007929        1.7113211690
 H          2.7457852032        3.7242657703        2.7511835887
 H          2.1689850966        5.5863511960        0.3331144130
 H          0.9225091857        4.7889622436        1.3770328023
 H          3.0795388916        3.3141708426       -0.2918204358
 O          3.3156398250        1.2132177796       -1.3281309794
