  62
        -98.93804542
 C          2.5897179298        1.2980063600        0.1435103397
 C          2.6710639499        0.3022523500       -0.8581645502
 C          3.5476525601       -0.8476176599       -0.5698205502
 C          4.2147166501       -0.9042905298        0.5946437897
 C          5.1796384903       -1.9580145396        1.0770027097
 C          4.8003847005       -3.4269698797        0.8426915498
 C          3.2946002106       -3.7260207199        0.8880908199
 H          3.1192202608       -4.5660256399        1.5628533099
 H          2.7506037005       -2.8691165499        1.2903260899
 C          2.7164870106       -4.0970183900       -0.4798826601
 H          3.4088493606       -4.7772457599       -0.9809322101
 H          1.7775384906       -4.6358752902       -0.3296443900
 C          2.4141827403       -2.9192964801       -1.4056054101
 H          1.5562208903       -2.3602446002       -1.0191192301
 H          2.1176816803       -3.3230667702       -2.3770757800
 C          3.5709934202       -1.9273525499       -1.6133838002
 H          4.5287448602       -2.4409454198       -1.6401215702
 H          3.4164370700       -1.4267127500       -2.5729652502
 H          5.1974059405       -3.7583421696       -0.1157848302
 H          5.3091208707       -4.0101990595        1.6119308698
 H          6.1533304403       -1.7630155895        0.6184811096
 H          5.2857355704       -1.7741403995        2.1487423297
 O          4.1129993001        0.0792490803        1.5318279697
 C          3.3029941899        1.1820005001        1.3405470497
 O          3.3063201398        1.9872370002        2.2928946896
 H          0.0338572997        1.0127800695       -1.4560868501
 C         -0.4418575503        1.3735954695       -0.5562926801
 C          0.2764491597        2.1785406496        0.3165256698
 C         -0.3403810803        2.6033506696        1.4876349798
 C         -1.6422602202        2.2307476494        1.7733009999
 C         -2.3522873702        1.4231426393        0.9026813000
 C         -1.7403251902        0.9844440793       -0.2639100600
 N         -2.4454114201        0.1432826392       -1.1470695799
 S         -3.0670229499       -1.2751744909       -0.4926222598
 O         -2.2965846597       -1.7157209807        0.6484291102
 O         -3.1646511298       -2.2012589810       -1.5998371798
 C         -4.7095554399       -0.8124254811        0.0165770803
 C         -5.5441526400       -0.2444136813       -0.9262236897
 C         -6.8286803201        0.1160264185       -0.5521530896
 C         -7.2556752500       -0.0992774215        0.7499392504
 C         -6.4069068198       -0.6737231113        1.6836374104
 C         -5.1199374098       -1.0355970811        1.3161211003
 H         -4.4224014997       -1.4786770410        2.0091106003
 H         -6.7405807697       -0.8406840713        2.6952219604
 H         -8.2558832900        0.1824959984        1.0388839804
 H         -7.4915190302        0.5632514484       -1.2752652296
 H         -5.1733076701       -0.0973893113       -1.9267758897
 H         -1.9227950101       -0.0653148708       -1.9869548599
 H         -3.3630593801        1.1212073991        1.1243631301
 H         -2.1079370402        2.5689395594        2.6864293900
 H          0.2172921896        3.2123113897        2.1845771898
 C          1.7140788396        2.5379536998        0.0251732997
 H          2.0568858895        3.2157502999        0.8180960497
 C          1.8612723494        3.2471788098       -1.3064249403
 C          1.4702791592        4.6897957197       -1.4051576804
 C          2.9161826592        4.2993303100       -1.4596533404
 H          3.4377845392        4.3714402300       -2.4022119105
 H          3.5362668493        4.5132793701       -0.6010595805
 H          1.1100331492        5.1719380997       -0.5090056104
 H          0.9961323691        5.0336345096       -2.3114767403
 H          1.6696496194        2.6117705697       -2.1605093803
 O          2.0599395298        0.3466666698       -1.9601248202
