  62
        -98.94562250
 C          1.6092975591        1.3724671874        0.0532937787
 C          2.5045964693        0.6241293248        0.8588569539
 C          2.9940391408       -0.6354160793        0.2872121446
 C          2.5836498778       -1.0151178452       -0.9357901949
 C          2.9942212669       -2.2679359966       -1.6606007460
 C          2.1856483197       -3.5101019693       -1.2608103812
 C          2.5115712286       -4.0821783895        0.1194643481
 H          2.0469980795       -5.0687049032        0.1743685796
 H          3.5891806515       -4.2238087082        0.2104912885
 C          2.0036142711       -3.2387203559        1.2974373258
 H          1.2238198810       -2.5519225162        0.9582052701
 H          1.5334305738       -3.8905096744        2.0379844322
 C          3.0857468373       -2.4407466661        2.0257881886
 H          3.7803117392       -3.1279339355        2.5149664968
 H          2.5989973843       -1.8446706359        2.8026297388
 C          3.8908834213       -1.4908127126        1.1295952328
 H          4.5757815894       -2.0593249374        0.5002747280
 H          4.4744509495       -0.8278692295        1.7736790845
 H          2.3874667013       -4.2835153291       -2.0054482468
 H          1.1204848789       -3.2713984239       -1.3083440452
 H          2.8358987801       -2.0798166064       -2.7246272672
 H          4.0555999775       -2.4558965591       -1.4964218432
 O          1.7267772358       -0.2694376608       -1.6800520406
 C          1.1817304671        0.9159450479       -1.1939545903
 O          0.3568471007        1.4390225537       -1.9635519768
 O          2.8761076256        0.9917525709        2.0059582693
 C          1.0271372895        2.6458532667        0.6391313910
 C         -0.4751120870        2.6277186794        0.5014281265
 C         -1.2033913361        3.6054658479       -0.1624423041
 C         -2.5818881992        3.5138798271       -0.2454021074
 C         -3.2578604464        2.4506085968        0.3228386470
 C         -2.5384981063        1.4659727403        0.9918723368
 C         -1.1600694621        1.5660980050        1.0821268164
 H         -0.6090393353        0.7983603364        1.6068280054
 N         -3.2028799791        0.3872084473        1.6037841292
 S         -2.6619883924       -1.1787882726        1.3940196247
 O         -3.7306112353       -1.9969767152        1.9258352556
 O         -1.3672825477       -1.3480584738        2.0016534457
 C         -2.5583718153       -1.4088677608       -0.3686199958
 C         -1.3278544609       -1.3451077204       -0.9857291179
 C         -1.2562915798       -1.4795280571       -2.3625243474
 C         -2.4171829907       -1.6717744961       -3.0945373176
 C         -3.6489573810       -1.7383595111       -2.4601542836
 C         -3.7242027031       -1.6031053504       -1.0838822736
 H         -4.6597015582       -1.6621787747       -0.5514251930
 H         -4.5481605722       -1.8916636701       -3.0349331862
 H         -2.3582744753       -1.7704206460       -4.1669551274
 H         -0.2971721085       -1.4110879836       -2.8507246029
 H         -0.4495418427       -1.1874733845       -0.3788695895
 H         -4.2084626858        0.4215345018        1.5146458317
 H         -4.3327595198        2.3795558693        0.2540500536
 H         -3.1367537624        4.2779713806       -0.7681514782
 H         -0.6911700935        4.4288973606       -0.6316843670
 H          1.2629752371        2.5793595633        1.7153404505
 C          1.6713703290        3.9295955706        0.1386760071
 C          3.0878693788        3.9405708170       -0.3513214530
 C          1.9619405643        4.1778715741       -1.3101315384
 H          1.8223121677        5.1779515935       -1.6941404050
 H          1.7071957518        3.4000182552       -2.0118436470
 H          3.7191811255        4.7727524105       -0.0778889181
 H          3.6081554262        2.9946053861       -0.3962989953
 H          1.3631445739        4.7891919477        0.7263819945
