  62
        -98.93606146
 C         -2.4875551400       -0.1217314599       -0.6007679902
 C         -2.1889220300       -0.6447686501        0.6809968397
 C         -1.7874261000       -2.0592608801        0.7151482594
 C         -1.7155997900       -2.7548596999       -0.4333592507
 C         -1.3218357800       -4.1997331799       -0.5438936410
 C          0.1828457900       -4.3669994298       -0.7897288110
 C          1.0632766500       -3.5793270900        0.1804502791
 H          2.1018039700       -3.8297477299       -0.0500412109
 H          0.9464226100       -2.5095639400       -0.0097940407
 C          0.7870810600       -3.8569469203        1.6647805691
 H          0.2500002500       -4.8003299103        1.7748012289
 H          1.7431907100       -3.9643778204        2.1810932890
 C          0.0182225200       -2.7419771904        2.3772665493
 H          0.4722631700       -1.7785304203        2.1324545694
 H          0.1146036000       -2.8938416006        3.4559258692
 C         -1.4801532800       -2.6573601903        2.0587905293
 H         -1.9368706800       -3.6451951804        2.1563695691
 H         -1.9406692800       -1.9898945305        2.7930634994
 H          0.4242929300       -5.4299665898       -0.7221286712
 H          0.4087555000       -4.0293605696       -1.8042337210
 H         -1.6097461300       -4.7154868300        0.3704467889
 H         -1.8667727900       -4.6360341497       -1.3834062711
 O         -1.9902393900       -2.2106761497       -1.6487216406
 C         -2.3661780300       -0.8831301996       -1.7609178104
 O         -2.5770260600       -0.5048523294       -2.9339237003
 H         -0.3730016000        1.2416756303       -1.1737046800
 C         -0.5873866900        1.9704968901       -0.4034466699
 C         -1.9106427900        2.1933311500       -0.0261498698
 C         -2.1445430801        3.1453137299        0.9570678704
 C         -1.0896546101        3.8197566098        1.5518784105
 C          0.2200624999        3.5543042998        1.2051291904
 C          0.4699978500        2.6113362900        0.2146630603
 N          1.7837931600        2.2932736801       -0.1815578498
 S          2.0868224400        0.6516756301       -0.4656456901
 O          1.7579986800        0.3488958004       -1.8377531502
 O          1.4445022900       -0.1528110801        0.5458950897
 C          3.8581175800        0.6061252301       -0.2618730301
 C          4.4038022800        0.0286288699        0.8683118998
 C          5.7818662900        0.0270735199        1.0210513298
 C          6.5849007900        0.6037920001        0.0489680299
 C          6.0221370800        1.1795980303       -1.0808619700
 C          4.6458232300        1.1818211503       -1.2413406800
 H          4.1634266600        1.6070557004       -2.1059567399
 H          6.6496152200        1.6249630104       -1.8358830199
 H          7.6564534000        0.6025332600        0.1709766899
 H          6.2216787000       -0.4231832903        1.8962564697
 H          3.7386449800       -0.4102326902        1.5947030097
 H          2.4775233100        2.6839149600        0.4428961003
 H          1.0381294099        4.0612163497        1.6939595205
 H         -1.2979648801        4.5505793796        2.3188413106
 H         -3.1398101101        3.3618278898        1.2989194904
 C         -2.9127002300        1.3348119702       -0.7625267300
 H         -2.7791179600        1.5545710604       -1.8362300999
 C         -4.4096910700        1.4231555401       -0.5060282500
 C         -5.0508333300        1.5934031799        0.8350326401
 C         -5.1782972200        2.6735600901       -0.1995572197
 H         -6.1376833700        2.7949726202       -0.6809627297
 H         -4.6400120701        3.5983841700       -0.0756933796
 H         -5.9212436100        0.9914803098        1.0536681300
 H         -4.4039464600        1.7300728397        1.6860081501
 H         -4.9090123200        0.7256149702       -1.1765782401
 O         -2.2710872400        0.0229213797        1.7431912498
