  62
        -98.94300686
 C          0.8920605651        1.7472347556        0.0679025178
 C          1.7691316780        1.1575991594        1.0101584538
 C          2.9989093846        0.5738023644        0.4615884041
 C          3.2003074503        0.5733875582       -0.8690973662
 C          4.4333195605        0.0832394469       -1.5801810507
 C          4.4902692291       -1.4344412731       -1.7980376764
 C          4.7814111317       -2.2597847426       -0.5445693124
 H          5.0290239469       -3.2698716659       -0.8763583409
 H          5.6618772731       -1.8584850410       -0.0418887866
 C          3.6084952766       -2.3384925950        0.4415654652
 H          3.4861158032       -3.3713602145        0.7728138500
 H          2.6867074848       -2.0478015518       -0.0667948503
 C          3.7674602822       -1.4819292999        1.6968179467
 H          2.8558153607       -1.5715443271        2.2929181249
 H          4.6003641523       -1.8567185809        2.2961826058
 C          4.0029281569        0.0072090568        1.4207890743
 H          3.8979797535        0.5502294380        2.3636507431
 H          5.0131540204        0.1625654826        1.0411835423
 H          3.5460857180       -1.7605408325       -2.2393817391
 H          5.2821695270       -1.6263180314       -2.5256849772
 H          5.3190312891        0.4042137166       -1.0299578579
 H          4.4375295057        0.5719318703       -2.5569046052
 O          2.2918356363        1.0776855859       -1.7465444574
 C          1.1388240417        1.7114879222       -1.3040794132
 O          0.4364028226        2.1893490333       -2.2144120960
 O          1.5494680563        1.1457457890        2.2514058075
 C         -0.3050410608        2.5299050569        0.5759638901
 C         -1.5722759957        2.1764147984       -0.1598736094
 C         -2.3769987516        3.1291846269       -0.7719204100
 C         -3.5418459432        2.7562226386       -1.4176262362
 C         -3.9423350693        1.4345543969       -1.4406779423
 C         -3.1520565173        0.4725248111       -0.8211716547
 C         -1.9717210787        0.8448529330       -0.1979295173
 H         -1.3575420943        0.0912363700        0.2763584291
 N         -3.5434671301       -0.8749302940       -0.8324309850
 S         -3.3343997025       -1.8342075259        0.5201101784
 O         -4.3828976571       -2.8290381608        0.4236017998
 O         -3.3091329819       -1.0545793984        1.7347011013
 C         -1.7771442621       -2.6497846457        0.2559318521
 C         -0.8547937677       -2.7207276790        1.2798269933
 C          0.3149637925       -3.4361159902        1.0786181532
 C          0.5422017214       -4.0598883085       -0.1382351138
 C         -0.3899383181       -3.9701858821       -1.1607963857
 C         -1.5648156882       -3.2637944386       -0.9626974146
 H         -2.3184944640       -3.1821815543       -1.7279858848
 H         -0.2064262332       -4.4527096154       -2.1073489178
 H          1.4517563343       -4.6188592329       -0.2907662382
 H          1.0420896941       -3.5024222844        1.8720612170
 H         -1.0661053887       -2.2145156628        2.2089404148
 H         -4.4347982179       -1.0483528277       -1.2741805704
 H         -4.8572026055        1.1429329470       -1.9341712293
 H         -4.1507346185        3.5065556511       -1.8988338647
 H         -2.0903627537        4.1672625418       -0.7519385824
 H         -0.4299666720        2.2304663417        1.6276276311
 C          0.0263917524        4.0096073121        0.5338001478
 C         -0.6234573463        4.9610360858        1.4925400890
 C          0.8235523543        4.6068465996        1.6528295369
 H          1.5679251583        5.3519429883        1.4145171613
 H          1.1071370055        3.9504167278        2.4621970026
 H         -0.8716658503        5.9533924170        1.1473619040
 H         -1.3276424655        4.5512177154        2.2007624412
 H          0.2414151037        4.3594371807       -0.4706057914
