  62
        -98.94049104
 C         -2.3246118912       -0.3370601792        0.2011672609
 C         -3.5375724656       -0.8916035800        0.6753389614
 C         -4.7050405502       -0.0008173049        0.6494420957
 C         -4.5561779745        1.2641677869        0.2151293782
 C         -5.6689614207        2.2632499788        0.0885977650
 C         -6.3017482824        2.2148886737       -1.3091510639
 C         -6.6694534468        0.8049250062       -1.7713913622
 H         -7.1364192031        0.8962216435       -2.7544807897
 H         -5.7541022046        0.2234070317       -1.9037282634
 C         -7.6145884357        0.0530066837       -0.8238564142
 H         -8.1072061962        0.7592369496       -0.1546671696
 H         -8.3941665153       -0.4292711861       -1.4172473773
 C         -6.9423225831       -1.0442338217        0.0035122990
 H         -7.7262359689       -1.6496372825        0.4663293427
 H         -6.3686758144       -1.7004936389       -0.6558744659
 C         -6.0157470494       -0.5608422747        1.1264143560
 H         -6.5408747948        0.1651066962        1.7503652511
 H         -5.7632626794       -1.4272723866        1.7446383911
 H         -5.5916691906        2.6354465242       -2.0249388564
 H         -7.1941336749        2.8433700866       -1.3060170502
 H         -6.4219072426        2.0589211694        0.8471858548
 H         -5.2563397533        3.2593461981        0.2567251923
 O         -3.3688292426        1.7692211647       -0.2073318532
 C         -2.2257931320        0.9835199831       -0.2366201558
 O         -1.2125104134        1.5699613503       -0.6615077008
 H          1.5029555234       -0.4826165142       -0.5217735142
 C          1.2591925312       -0.2764595557        0.5065495126
 C          0.0056600215       -0.5789528557        1.0117854915
 C         -0.2631804074       -0.2903973281        2.3481046584
 C          0.6975116861        0.2899400144        3.1523251970
 C          1.9500687432        0.5882436866        2.6445589075
 C          2.2268786199        0.3097559055        1.3116750785
 N          3.4755814247        0.6387778206        0.7616851021
 S          4.1188247634       -0.3135237188       -0.4711927767
 O          3.5224806319        0.0653312758       -1.7272416145
 O          4.0296139780       -1.7128395612       -0.1176128052
 C          5.8178866856        0.2274686158       -0.4291990892
 C          6.1370710519        1.4396806106       -1.0119962208
 C          7.4492909315        1.8820455734       -0.9620023662
 C          8.4153649545        1.1094915305       -0.3340964272
 C          8.0805767797       -0.1055738088        0.2441331367
 C          6.7693678533       -0.5531636079        0.1993617923
 H          6.4637122244       -1.4938429106        0.6283309785
 H          8.8344861866       -0.7051158961        0.7282917231
 H          9.4361715797        1.4557509070       -0.2982119074
 H          7.7137088200        2.8249127460       -1.4130086621
 H          5.3547101588        2.0003253718       -1.4968324296
 H          4.1688205186        0.8674930591        1.4605544771
 H          2.7017301842        1.0432041490        3.2715633307
 H          0.4733602110        0.5075724728        4.1858848474
 H         -1.2417728090       -0.5262647702        2.7443285824
 C         -1.0814467604       -1.2078173028        0.1766232078
 H         -1.3764242444       -2.1534923447        0.6559799425
 C         -0.6630229451       -1.4979039938       -1.2488111493
 C          0.1502711888       -2.7180250072       -1.5573519524
 C         -1.2867531337       -2.6491017784       -1.9767382982
 H         -1.5135637803       -2.5336657219       -3.0260141615
 H         -2.0060057818       -3.2467257268       -1.4358415314
 H          0.9183254542       -2.6460923036       -2.3131853281
 H          0.4117983268       -3.3642174163       -0.7328023553
 H         -0.4619358953       -0.5966159283       -1.8184999535
 O         -3.6371359812       -2.0728443882        1.1044222595
