  62
        -98.93903244
 C         -2.2223326917       -1.1713627497        0.4467961109
 C         -2.2829739015       -0.2369301699       -0.6119607193
 C         -3.0552799813        0.9984135203       -0.3652669396
 C         -3.6353229014        1.1725530206        0.8369480904
 C         -4.4989877012        2.3161434108        1.2987374201
 C         -5.9211460012        2.2566886809        0.7175530400
 C         -5.9956513911        1.9144982207       -0.7681356900
 H         -7.0505705611        1.7946363008       -1.0281685500
 H         -5.5081450313        0.9531215306       -0.9395789097
 C         -5.3997028809        2.9598621604       -1.7079146601
 H         -5.9168198408        3.9106735505       -1.5610697903
 H         -5.5981160609        2.6280423202       -2.7301502501
 C         -3.8946360209        3.2008710502       -1.5723403601
 H         -3.6714437509        3.8173593703       -0.7055003502
 H         -3.5752280107        3.7733022500       -2.4482282801
 C         -3.0447917211        1.9339632501       -1.5499824197
 H         -1.9929782710        2.2157902799       -1.6894590697
 H         -3.2939981811        1.3191278399       -2.4223701396
 H         -6.4068710411        3.2171017610        0.8976804398
 H         -6.4758660114        1.4896665811        1.2633434901
 H         -4.0216630211        3.2626984407        1.0624430999
 H         -4.5646959213        2.2399349411        2.3864405101
 O         -3.5322846716        0.2488308608        1.8362762805
 C         -2.8249627118       -0.9271420793        1.6787275608
 O         -2.7975958919       -1.6563118591        2.6919313310
 O         -1.7230363014       -0.4196284102       -1.7246781592
 C         -1.4361335819       -2.4589719898        0.2778846512
 C          0.0004907982       -2.1374005501       -0.0581002987
 C          0.7079011982       -2.7565208704       -1.0796241285
 C          2.0180494383       -2.3948597106       -1.3432900085
 C          2.6513411883       -1.4190474306       -0.5962343087
 C          1.9549619884       -0.7979204203        0.4324310912
 C          0.6458904183       -1.1660845000        0.6976114411
 H          0.1034204683       -0.6769485398        1.4987865710
 N          2.5922299484        0.1922398098        1.2053179610
 S          3.2610259887        1.4972951895        0.3810125408
 O          3.2689302088        2.5832932297        1.3378829106
 O          2.5788657588        1.7461501094       -0.8678191993
 C          4.9379140386        0.9829499492        0.0754294511
 C          5.7233114785        0.6508071393        1.1620068912
 C          7.0316160085        0.2498744691        0.9438785214
 C          7.5299875186        0.1906053187       -0.3492316386
 C          6.7295695387        0.5305354587       -1.4291034287
 C          5.4194092087        0.9318250389       -1.2179390789
 H          4.7576362388        1.2004477388       -2.0260725190
 H          7.1186576988        0.4838385684       -2.4335102387
 H          8.5484070785       -0.1225485014       -0.5164641784
 H          7.6571027484       -0.0148534509        1.7810891415
 H          5.2976773084        0.7148884996        2.1494709411
 H          2.0225613984        0.5259572200        1.9701241909
 H          3.6685584984       -1.1297939608       -0.8038190486
 H          2.5530384783       -2.8790973409       -2.1458615884
 H          0.2299773481       -3.5139853604       -1.6785913184
 H         -1.4543058720       -2.9562909996        1.2590259013
 C         -2.1104173719       -3.3576225399       -0.7374311086
 C         -1.9689240922       -4.8461740499       -0.6399146083
 C         -3.2743356121       -4.1936358596       -0.3005913486
 H         -4.1058550721       -4.3146509997       -0.9785185486
 H         -3.5644673522       -4.1331184194        0.7385320714
 H         -1.9072958322       -5.4192715501       -1.5526668382
 H         -1.3745658623       -5.2397447198        0.1706447718
 H         -2.1579828318       -2.9076375701       -1.7224213187
