  62
        -98.94331347
 C         -2.6036092096       -0.1261864706       -0.1326786350
 C         -2.3085116236       -1.1694441773       -1.0414581924
 C         -1.8867050189       -2.4439388210       -0.4487739050
 C         -1.7835246834       -2.5437901479        0.8890053725
 C         -1.3675299290       -3.7837432883        1.6262132114
 C          0.1432093267       -3.8169933396        1.8899989899
 C          1.0000036829       -3.5340069259        0.6560110177
 H          0.8717072180       -2.4871046146        0.3708335234
 H          2.0433501696       -3.6520872444        0.9594001214
 C          0.7131308450       -4.4427884157       -0.5473392974
 H          1.6657655680       -4.7524526193       -0.9825472914
 H          0.2000604546       -5.3462597324       -0.2152401016
 C         -0.0934721302       -3.7833522333       -1.6678707431
 H          0.3451447649       -2.8108072681       -1.9067531563
 H         -0.0125768919       -4.4102401086       -2.5600742750
 C         -1.5877246267       -3.5794409319       -1.3868751354
 H         -2.0241615943       -4.5102731234       -1.0188230590
 H         -2.0739796775       -3.3217648327       -2.3324747199
 H          0.3809637408       -3.0616496323        2.6430703668
 H          0.3971904114       -4.7981653334        2.2971662219
 H         -1.8920063716       -3.8005560541        2.5835527413
 H         -1.6636075830       -4.6563348162        1.0463353795
 O         -2.0419054551       -1.5103231506        1.7300345119
 C         -2.4209328178       -0.2693132854        1.2431047599
 O         -2.5817246280        0.5988838571        2.1227389934
 O         -2.3984102729       -1.0399615530       -2.2941016177
 C         -3.0039121913        1.2341462224       -0.6834203085
 C         -1.8784238554        2.1931033232       -0.3845891856
 C         -2.0156675540        3.3731261139        0.3330278662
 C         -0.9014106230        4.1281986203        0.6621214485
 C          0.3684889790        3.7208409618        0.2942723823
 C          0.5083310149        2.5600741678       -0.4514901926
 C         -0.6058766290        1.8191399188       -0.7989318179
 H         -0.4833690932        0.9014043910       -1.3614833423
 N          1.8160413204        2.0819634009       -0.7709532136
 S          2.2809219316        0.9984882547        0.4532897371
 O          1.4598154296       -0.1920714471        0.4030485698
 O          2.2921811133        1.7247027281        1.6975333918
 C          3.9509597772        0.6078173151       -0.0355145641
 C          4.9185838734        1.5836816845        0.1081277175
 C          6.2139572009        1.3059928994       -0.2972970874
 C          6.5177131653        0.0649645020       -0.8378617904
 C          5.5356059559       -0.9039559697       -0.9753183042
 C          4.2370581853       -0.6318683657       -0.5729078087
 H          3.4417067200       -1.3558521936       -0.6557293347
 H          5.7737757772       -1.8686142181       -1.3938155717
 H          7.5267911159       -0.1492165707       -1.1527468231
 H          6.9809429623        2.0560748361       -0.1912833623
 H          4.6352153256        2.5292210670        0.5393408347
 H          1.7939774770        1.5469904607       -1.6320506480
 H          1.2464705971        4.2723835264        0.5873525781
 H         -1.0241968493        5.0348401541        1.2349751079
 H         -2.9930057999        3.6893805302        0.6593846162
 H         -3.0672310730        1.1013074900       -1.7735405048
 C         -4.3517653270        1.6780496644       -0.1620337662
 C         -5.1607977573        2.6718254102       -0.9396381647
 C         -5.5906357414        1.2377532003       -0.8807750423
 H         -6.4607728085        0.9817297511       -0.2953984618
 H         -5.4629797335        0.6271786023       -1.7626934834
 H         -5.7401360316        3.4026520018       -0.3963758221
 H         -4.7438552595        3.0381604371       -1.8654517361
 H         -4.3887195379        1.7184430347        0.9203834995
