  62
        -98.94188633
 C         -2.7775023389       -0.2518604623       -0.2479081038
 C         -2.0362196014        0.5668970436       -1.1344280728
 C         -2.0115265803        2.0026573921       -0.8192105681
 C         -2.6877241916        2.4631254813        0.2472407952
 C         -2.7047285769        3.8911659313        0.7074900285
 C         -1.6025552705        4.1625556166        1.7405373978
 C         -0.2161326630        3.6699996737        1.3235669401
 H          0.4827426970        3.9703277520        2.1079813349
 H         -0.2047905588        2.5769899006        1.2982228679
 C          0.2747146495        4.2064895145       -0.0280228072
 H         -0.2919604328        5.0968576275       -0.3046396084
 H          1.3201017743        4.5037991485        0.0777725738
 C          0.2137838627        3.1848651152       -1.1652316065
 H          0.8171922088        3.5609149297       -1.9962514797
 H          0.6584737144        2.2463155214       -0.8223146034
 C         -1.1882770953        2.8863850839       -1.7130514347
 H         -1.7107499007        3.8221207607       -1.9221156311
 H         -1.0724823748        2.3390471945       -2.6530137983
 H         -1.8727420755        3.6650429507        2.6750062647
 H         -1.5649603179        5.2377801454        1.9267053639
 H         -2.5792532920        4.5455362513       -0.1529569312
 H         -3.6746802450        4.0908917888        1.1664965638
 O         -3.4186603484        1.6555783816        1.0574543819
 C         -3.4545356233        0.2889528232        0.8503520476
 O         -4.1302284473       -0.3355025563        1.6935013876
 H         -0.2887350520       -1.4151940829       -1.1674826713
 C         -0.3395990279       -2.0177233257       -0.2727095556
 C         -1.5786932551       -2.3351853815        0.2650222191
 C         -1.6190135748       -3.0975465134        1.4262203267
 C         -0.4488053377       -3.5123059053        2.0397704149
 C          0.7845311408       -3.1565360294        1.5222319201
 C          0.8308266226       -2.3999216531        0.3602288947
 N          2.0871755649       -1.9501619650       -0.1344813555
 S          2.5916499012       -0.6104680984        0.7803756595
 O          2.9034176154       -1.0784561774        2.1075426361
 O          1.6133245894        0.4519073869        0.6946930367
 C          4.0901172436       -0.1466648336       -0.0659786040
 C          5.2359023035       -0.8810919582        0.1726417421
 C          6.3970429710       -0.5482362488       -0.5060538035
 C          6.3921533128        0.5058897601       -1.4077337437
 C          5.2339197408        1.2329851953       -1.6367412551
 C          4.0683908103        0.9042487598       -0.9620527031
 H          3.1466225251        1.4461011570       -1.1051277872
 H          5.2322661824        2.0529854313       -2.3367609418
 H          7.2971741645        0.7641027938       -1.9345669954
 H          7.3001843486       -1.1100205356       -0.3304348784
 H          5.1918974888       -1.6855328988        0.8877333746
 H          1.9833450155       -1.6273526560       -1.0903790784
 H          1.7027426282       -3.4277092078        2.0167984768
 H         -0.4981880114       -4.0998753498        2.9441434511
 H         -2.5765108378       -3.3380782860        1.8655874079
 C         -2.8353524251       -1.7710408316       -0.3543740009
 H         -3.6866129385       -2.0832126168        0.2651600234
 C         -3.0533384422       -2.2821450419       -1.7638366036
 C         -3.5931263081       -3.6665518723       -1.9547713718
 C         -4.4519732105       -2.4776658207       -2.2627808832
 H         -4.6662818111       -2.2462214411       -3.2952011060
 H         -5.2608877588       -2.2428798939       -1.5860794051
 H         -3.2171748818       -4.2561503938       -2.7766118679
 H         -3.8218618694       -4.2404110846       -1.0694521907
 H         -2.3200948358       -1.9231919768       -2.4731486815
 O         -1.4147716553        0.1477082007       -2.1490605775
