  62
        -98.93914126
 C          0.9660267862        1.2131923280        0.5079263096
 C          1.4525225171        0.0325164513        1.1191422980
 C          2.2455730352       -0.8739128934        0.2722305348
 C          2.4184383477       -0.5679823816       -1.0247956213
 C          3.2298803057       -1.3302199443       -2.0352791388
 C          4.6541911519       -0.7569352279       -2.1276307746
 C          5.6473832726       -1.3366601316       -1.1206126006
 H          5.8855918362       -2.3637405176       -1.4049534810
 H          6.5672946210       -0.7529920153       -1.2008245857
 C          5.1858415606       -1.3285114518        0.3395302937
 H          6.0746521342       -1.3963857868        0.9697793280
 H          4.7004676941       -0.3777885042        0.5671283617
 C          4.2461931400       -2.4936114967        0.6839838060
 H          4.6066549267       -2.9899773312        1.5871022448
 H          4.2940674688       -3.2328060399       -0.1158425564
 C          2.7785081062       -2.1116707373        0.9417121362
 H          2.1405972540       -2.9596611372        0.6699817009
 H          2.6305102843       -1.9312808192        2.0110454571
 H          4.5867596638        0.3266180834       -1.9992031965
 H          5.0421309787       -0.9421732622       -3.1313737885
 H          2.7320249741       -1.1968329732       -2.9984173008
 H          3.2470103022       -2.3895723855       -1.7949090676
 O          1.8982718311        0.5542398765       -1.5874447186
 C          1.1407665307        1.4556146745       -0.8565230912
 O          0.7091777963        2.4108645087       -1.5283618638
 O          1.2310516682       -0.2575951332        2.3258939017
 C          0.0886341270        2.1288209854        1.3463236311
 C         -1.2102406928        2.3443221602        0.6115843659
 C         -1.7334039015        3.5843234621        0.2749413592
 C         -2.9038435137        3.6672614905       -0.4607825507
 C         -3.5579464756        2.5277943402       -0.8914132222
 C         -3.0438289475        1.2807879829       -0.5521540039
 C         -1.9011688160        1.2031617619        0.2227101031
 H         -1.5031122115        0.2351394126        0.4879320075
 N         -3.6667474951        0.0928369281       -0.9645516230
 S         -2.7272144669       -1.2409099495       -1.3475490950
 O         -1.4544540031       -0.8727410254       -1.9229815923
 O         -3.5906653786       -2.0514580805       -2.1823664372
 C         -2.4969915090       -2.0704828468        0.2104923957
 C         -3.6148299917       -2.3885515286        0.9563399964
 C         -3.4459153588       -3.0334858602        2.1708525463
 C         -2.1702120540       -3.3457729509        2.6166570009
 C         -1.0582504370       -3.0247738798        1.8536217305
 C         -1.2217746902       -2.3840521016        0.6359692494
 H         -0.3809665940       -2.1026894020        0.0188634101
 H         -0.0642344522       -3.2513366538        2.2044917448
 H         -2.0379975949       -3.8404851285        3.5658667499
 H         -4.3069130373       -3.2863737471        2.7683201955
 H         -4.5876043167       -2.1273974159        0.5747311816
 H         -4.4320045085        0.2142916049       -1.6118496484
 H         -4.4506816815        2.5979458189       -1.4942083998
 H         -3.2995324632        4.6364861586       -0.7246200021
 H         -1.2123782829        4.4837612668        0.5592407207
 H         -0.1295433322        1.5348880787        2.2503110630
 C          0.7514135492        3.4101600563        1.8245054771
 C          2.2397160693        3.4948489946        1.9805403751
 C          1.5509171809        4.2969682098        0.9195023031
 H          1.4761106294        5.3660577235        1.0565097201
 H          1.6572560432        3.9946031203       -0.1100166595
 H          2.6393136195        4.0097107830        2.8413111506
 H          2.8220304739        2.6381240322        1.6731093184
 H          0.1619937880        3.9061523817        2.5897327264
