  62
        -98.94666874
 C          1.1809827145        1.2703086976        0.0832203692
 C          1.5716572373        0.2809416967        1.0190857987
 C          2.4210436137       -0.7982727450        0.5025575190
 C          2.7152648089       -0.8285237417       -0.8100363387
 C          3.6377249029       -1.8188100174       -1.4590902023
 C          5.0810889552       -1.2953098894       -1.4770362153
 C          5.5688247724       -0.7830692926       -0.1216440629
 H          6.6088155857       -0.4737433036       -0.2462906879
 H          4.9995183650        0.1090399868        0.1491491406
 C          5.4736527938       -1.8087103684        1.0167897590
 H          5.3741827084       -2.8131979081        0.6040317637
 H          6.4042378786       -1.7848960730        1.5877831600
 C          4.3368225080       -1.5522036908        2.0081939158
 H          4.3837161048       -0.5177818506        2.3580048334
 H          4.4914524635       -2.1977576066        2.8768772328
 C          2.9204361607       -1.8209326081        1.4833494344
 H          2.8725101035       -2.8232983782        1.0542070298
 H          2.2360931850       -1.7786419997        2.3354724289
 H          5.7352993000       -2.0986128020       -1.8208386959
 H          5.1442132735       -0.4751135829       -2.1958320881
 H          3.5957142309       -2.7622874397       -0.9181931632
 H          3.3085886246       -1.9787624834       -2.4872032591
 O          2.2344853647        0.0781033126       -1.6955838607
 C          1.4588480345        1.1507955129       -1.2789568298
 O          1.0924243719        1.8987233692       -2.2036033940
 H         -1.3228646353        0.7274750131        1.6618051268
 C         -1.7976199517        1.2682298816        0.8529049427
 C         -1.0699124306        2.2416559235        0.1774622547
 C         -1.6790078552        2.9194232629       -0.8698614825
 C         -2.9833097046        2.6231925738       -1.2301466078
 C         -3.7060331198        1.6564850959       -0.5541397812
 C         -3.1034971372        0.9750754607        0.4956416869
 N         -3.8299617620       -0.0289447767        1.1795805400
 S         -4.0993827656       -1.4282352534        0.3010232428
 O         -4.8944600022       -1.1020342077       -0.8542142696
 O         -4.6725448327       -2.3738110677        1.2307366154
 C         -2.4796632683       -1.9791450894       -0.2052546489
 C         -1.8819261205       -1.3862324022       -1.2995927926
 C         -0.6081423718       -1.7898913429       -1.6651927062
 C          0.0416087058       -2.7723602937       -0.9344020235
 C         -0.5671238011       -3.3488888811        0.1692804824
 C         -1.8383811158       -2.9457776395        0.5429992698
 H         -2.3517077004       -3.3725597649        1.3898208055
 H         -0.0548021388       -4.1080895309        0.7379348224
 H          1.0282123715       -3.0894812439       -1.2311883178
 H         -0.1251215691       -1.3288197882       -2.5128052455
 H         -2.4166968789       -0.6304792767       -1.8520984731
 H         -3.4077420712       -0.2805723508        2.0633695091
 H         -4.7154153263        1.4034237369       -0.8347547251
 H         -3.4433865425        3.1535872259       -2.0501580421
 H         -1.1260486493        3.6655358601       -1.4159303184
 C          0.3653698242        2.4501346644        0.5891202340
 H          0.4100077160        2.3820136318        1.6851064446
 C          0.9450370687        3.7807233379        0.1622665629
 C          0.5084444393        5.0280724555        0.8689656296
 C          1.8919482762        4.4926734676        1.0795195201
 H          2.7242294545        5.0271970548        0.6466898891
 H          2.1199703180        4.0249893833        2.0263616320
 H          0.3893399708        5.9330637198        0.2933014471
 H         -0.2046489809        4.9214390651        1.6724874574
 H          1.1459399180        3.8422523903       -0.8998609039
 O          1.2317560674        0.3068031228        2.2332612266
