  62
        -98.94039844
 C         -1.7723309879       -0.5959980972        1.0246624198
 C         -1.9635893802       -0.3156543374       -0.3510962375
 C         -3.3416334874       -0.4638305374       -0.8478677900
 C         -4.3158881908       -0.8443394108       -0.0028390948
 C         -5.7652556193       -0.9821338171       -0.3668385135
 C         -6.5268803118        0.3269436870       -0.1162945669
 C         -5.8435669535        1.5612895769       -0.7050791152
 H         -4.8996270185        1.7307206459       -0.1817255825
 H         -6.4853662793        2.4196328269       -0.4945114925
 C         -5.5768767004        1.4800665683       -2.2146276785
 H         -5.8660762873        2.4285309053       -2.6722372340
 H         -6.1999769603        0.7032054488       -2.6592691754
 C         -4.1141066548        1.2326505429       -2.5884701084
 H         -3.4755018456        1.9516897843       -2.0688697398
 H         -4.0031441359        1.4123983118       -3.6611311244
 C         -3.5813444807       -0.1772141645       -2.3035368222
 H         -2.6061718113       -0.2668757595       -2.7908700443
 H         -4.2536919033       -0.9198172268       -2.7378918803
 H         -6.6228999095        0.4707647694        0.9624957733
 H         -7.5296774876        0.2288401930       -0.5360763726
 H         -5.8464268832       -1.2674872984       -1.4138217313
 H         -6.2016056139       -1.7695061268        0.2501879557
 O         -4.0950427473       -1.0993289360        1.3125250124
 C         -2.8307638160       -0.9594885957        1.8610587412
 O         -2.7788053225       -1.1793999127        3.0878452276
 H          2.0207223563       -0.0441647338        0.4219222142
 C          1.4863314283        0.8687748976        0.6219273543
 C          0.2442452419        0.8334856859        1.2332721621
 C         -0.4258127993        2.0355273887        1.4502818656
 C          0.1280686855        3.2357523410        1.0523950703
 C          1.3751126919        3.2670668436        0.4521341271
 C          2.0552683377        2.0756611384        0.2387382576
 N          3.3151718291        2.0653198407       -0.3772032937
 S          4.5005629517        1.0278441051        0.1804201955
 O          4.3989516022        0.8201866173        1.6067443250
 O          5.7423770591        1.6080466663       -0.2865531984
 C          4.2272507497       -0.5045623337       -0.6830804404
 C          4.4122031969       -1.6943684181       -0.0071439718
 C          4.2480556646       -2.8882166334       -0.6921026261
 C          3.9035721019       -2.8707841956       -2.0350645008
 C          3.7210338787       -1.6671032958       -2.6986833402
 C          3.8880235851       -0.4702112651       -2.0208408873
 H          3.7512891965        0.4820128046       -2.5053919410
 H          3.4477979807       -1.6578565103       -3.7415131426
 H          3.7725691537       -3.8008625814       -2.5654698771
 H          4.3872405247       -3.8251909573       -0.1761910213
 H          4.6682854411       -1.6617125705        1.0400443345
 H          3.6872065619        2.9739653210       -0.6111972571
 H          1.8135142018        4.2049083966        0.1459189843
 H         -0.4092701674        4.1577319840        1.2180208139
 H         -1.3969157682        2.0121089529        1.9274917589
 C         -0.4107339777       -0.4496346957        1.6820804325
 H         -0.6237730792       -0.3529492920        2.7603040402
 C          0.4898354805       -1.6661882422        1.5267695745
 C         -0.0874517608       -3.0429665355        1.3938045259
 C          0.6126352389       -2.4087943826        0.2314848224
 H          1.5846794749       -2.7853231039       -0.0514635971
 H          0.0219274454       -2.0589906042       -0.5997135830
 H         -1.1635243380       -3.1330815180        1.3602367009
 H          0.4016129349       -3.8538637208        1.9122176753
 H          1.3906510151       -1.5794053627        2.1280499146
 O         -1.0454278912        0.0390510473       -1.1332807981
