  62
        -98.94414610
 C         -1.8373861995       -1.4305486605        0.4692490892
 C         -2.5119852997       -0.8233719603       -0.6186812105
 C         -3.3367280297        0.3495306596       -0.2858747801
 C         -3.3811143897        0.7920679492        0.9833270601
 C         -4.1534541297        1.9917502689        1.4493950905
 C         -3.3016659498        3.2671792890        1.3911344908
 C         -2.5776711700        3.4640439795        0.0594651208
 H         -1.8430977599        2.6659315796       -0.0665724595
 H         -2.0307356201        4.4071159096        0.1253892511
 C         -3.4990982401        3.4921755298       -1.1676294191
 H         -3.2012637803        4.3214425601       -1.8125839988
 H         -4.5276495501        3.6791276796       -0.8569120289
 C         -3.4500353601        2.2228172701       -2.0199035395
 H         -2.4114884501        1.9752365003       -2.2529340896
 H         -3.9585819002        2.4282311203       -2.9655532794
 C         -4.1133965099        0.9835482498       -1.4059632498
 H         -4.1825589599        0.2229268301       -2.1890141500
 H         -5.1253941799        1.2316255896       -1.0789970496
 H         -2.5538116698        3.2192672389        2.1862567608
 H         -3.9494382299        4.1235035889        1.5876300312
 H         -5.0404026298        2.1068581291        0.8291842706
 H         -4.4643899696        1.8194556286        2.4813237905
 O         -2.6813244195        0.2115806689        1.9922382698
 C         -1.8932838294       -0.9012002109        1.7608803494
 O         -1.2976762593       -1.3253908412        2.7732521792
 H          1.1733192107       -1.8133240506        1.6007622788
 C          1.3541488005       -1.8164932303        0.5335047088
 C          0.3452971105       -2.2490792401       -0.3185229112
 C          0.5724544004       -2.2208450396       -1.6888462012
 C          1.7875419203       -1.7814501394       -2.1856178812
 C          2.7959205803       -1.3658590695       -1.3345122512
 C          2.5730761105       -1.3790851700        0.0367105088
 N          3.5878950405       -0.9558679902        0.9143828689
 S          4.3830407803        0.4736153800        0.5657399592
 O          5.3554982303        0.2424099204       -0.4726506409
 O          4.9064721004        0.9347786597        1.8316355293
 C          3.1161890802        1.5807505701       -0.0251869503
 C          2.1461755402        1.9868698497        0.8696866299
 C          1.1338223501        2.8220676798        0.4278518503
 C          1.1039683099        3.2285782702       -0.8976024896
 C          2.0851915999        2.8124074905       -1.7834338898
 C          3.1030489700        1.9799879305       -1.3457790102
 H          3.8878844300        1.6381781108       -2.0003791504
 H          2.0588550898        3.1322084509       -2.8126001097
 H          0.3101798598        3.8739755102       -1.2394773893
 H          0.3710488301        3.1480823895        1.1171883704
 H          2.1989628104        1.6558928694        1.8949925798
 H          3.3203508406       -0.9904373705        1.8872519189
 H          3.7513731403       -1.0354094793       -1.7080996512
 H          1.9531741802       -1.7649101790       -3.2519910112
 H         -0.2123192597       -2.5215043195       -2.3630941313
 C         -0.9705345094       -2.6690474204        0.2906990588
 H         -0.7631756393       -3.0329492307        1.3061946486
 C         -1.6704553594       -3.7705106802       -0.4765660815
 C         -1.1151084992       -5.1605146802       -0.4157547220
 C         -2.4008468992       -4.8356703605        0.2821837382
 H         -3.3230272392       -5.2194811205       -0.1277284618
 H         -2.3958315791       -4.7767349809        1.3612027882
 H         -0.2357710592       -5.3204144603        0.1902247979
 H         -1.1523486793       -5.7706930699       -1.3049868922
 H         -2.1104171695       -3.4410390400       -1.4080754514
 O         -2.4513187597       -1.2311645099       -1.8066141306
