  62
        -98.94072401
 C         -2.5375052082       -0.3242766032        0.1938001945
 C         -2.5249389159        0.7805307655        1.0811344243
 C         -2.4150805011        2.1099150289        0.4689885131
 C         -2.3203946546        2.2100622843       -0.8688074098
 C         -2.1882157780        3.4982578583       -1.6276712405
 C         -0.7186944394        3.8620194776       -1.8759642042
 C          0.1619650082        3.7938420743       -0.6278291289
 H          0.2689571661        2.7515434510       -0.3161251099
 H          1.1585986066        4.1343863808       -0.9186036007
 C         -0.3363443570        4.6383028654        0.5532038307
 H          0.5184853103        5.1574033673        0.9920044462
 H         -1.0321509697        5.3998296208        0.1979513765
 C         -0.9921670160        3.8380816182        1.6806127138
 H         -1.0678250346        4.4856318056        2.5587222549
 H         -0.3485882497        2.9951086229        1.9494943883
 C         -2.3982045014        3.2980646594        1.3881326743
 H         -2.8266306167        2.9524106497        2.3336527967
 H         -3.0278511650        4.1005141053        0.9976850306
 H         -0.3102255775        3.1688469784       -2.6147050042
 H         -0.6818657070        4.8700255842       -2.2944414347
 H         -2.6895930125        3.3794436464       -2.5900597722
 H         -2.6802611407        4.2917619961       -1.0682035673
 O         -2.3110958840        1.1298733385       -1.6886438339
 C         -2.3704203675       -0.1616310637       -1.1825467466
 O         -2.2788146887       -1.0456622715       -2.0547666541
 H         -0.0652942866       -0.9012061594        0.6796117290
 C         -0.1532569548       -1.9067153293        0.2933659545
 C         -1.4017569211       -2.5176366654        0.2732176754
 C         -1.4965422240       -3.8139770024       -0.2118496315
 C         -0.3652825109       -4.4699532125       -0.6695868431
 C          0.8697962095       -3.8508375692       -0.6658179614
 C          0.9724952447       -2.5449370843       -0.1933012332
 N          2.1993668989       -1.8628876737       -0.2444846895
 S          2.4071156695       -0.3783801307        0.5105151878
 O          2.2222475592       -0.5003580734        1.9417939718
 O          1.5985999830        0.6074596008       -0.1603609443
 C          4.1299851192       -0.1004284570        0.1486429112
 C          5.0868418422       -0.4713721767        1.0744142582
 C          6.4252622236       -0.2791622320        0.7696604279
 C          6.7823735033        0.2759042918       -0.4499497137
 C          5.8108185448        0.6453419389       -1.3683940006
 C          4.4709148865        0.4558735561       -1.0694228275
 H          3.6795042998        0.7339418727       -1.7462662407
 H          6.0914087098        1.0800221932       -2.3142111735
 H          7.8243467278        0.4249168436       -0.6850276398
 H          7.1824736887       -0.5616756496        1.4831011647
 H          4.7612736491       -0.8882181556        2.0139142681
 H          3.0112389807       -2.4593754192       -0.1818332352
 H          1.7452017528       -4.3604770001       -1.0372998822
 H         -0.4506091185       -5.4793328244       -1.0428203289
 H         -2.4542211116       -4.3066964305       -0.2479667265
 C         -2.5652147389       -1.7152705039        0.8027278238
 H         -2.3791550519       -1.5383415542        1.8770437480
 C         -3.9022947964       -2.4347089044        0.7132038668
 C         -5.1768133482       -1.6781246002        0.4898520119
 C         -4.6498217444       -2.5887167537       -0.5762034743
 H         -5.1707185552       -3.5178264290       -0.7563324999
 H         -4.2124160964       -2.1504060646       -1.4587598910
 H         -6.0551312511       -1.9789611549        1.0412097993
 H         -5.1028063609       -0.6115875470        0.3317641020
 H         -3.9598793918       -3.2668576723        1.4085421053
 O         -2.6040084716        0.6580999168        2.3350573528
