  62
        -98.93486662
 C         -2.3215413901       -0.8424366434       -0.0883336258
 C         -3.4449197532       -0.7703469968        0.7656076743
 C         -4.5214179529        0.1557178876        0.3682114218
 C         -4.3670243896        0.8940729953       -0.7457861066
 C         -5.3154522613        1.8964717307       -1.3538020969
 C         -6.0003051482        2.8750951139       -0.3873364044
 C         -7.4960576979        2.6083615332       -0.2092540359
 H         -7.9808199472        3.5345875536        0.1073017225
 H         -7.9181139311        2.3351700901       -1.1786416538
 C         -7.8466996932        1.5309473016        0.8154892050
 H         -8.9202444507        1.3417001293        0.7418205637
 H         -7.6526525905        1.9112933971        1.8207573134
 C         -7.1025432244        0.2044397695        0.6501410240
 H         -7.0285107245       -0.0634131810       -0.4032342074
 H         -7.6954788851       -0.5737702928        1.1354700279
 C         -5.7074514874        0.1976371548        1.2929375334
 H         -5.6018094417        1.0546406562        1.9644668141
 H         -5.5974364802       -0.6909274259        1.9224826165
 H         -5.8849616043        3.8803652178       -0.7958081591
 H         -5.4944650360        2.8595566091        0.5767456804
 H         -6.0705742247        1.3538433022       -1.9281041436
 H         -4.7136824523        2.4504065659       -2.0778526398
 O         -3.2577584132        0.7988540407       -1.5341694077
 C         -2.2163047776       -0.0633395084       -1.2392297523
 O         -1.2808073701       -0.0411903859       -2.0608320237
 O         -3.5483380992       -1.4536117664        1.8207208460
 C         -1.1893117262       -1.7903653293        0.2639050602
 C          0.0833893142       -1.0073699842        0.4705364572
 C          0.1004040631       -0.0098905595        1.4428524959
 C          1.2385733281        0.7386854087        1.6685630666
 C          2.3869318147        0.5127887920        0.9287186357
 C          2.3845127903       -0.4834931979       -0.0364216830
 C          1.2392731348       -1.2406766158       -0.2558403612
 H          1.2547686367       -2.0091602967       -1.0127871240
 N          3.5403887531       -0.7111342168       -0.7993616434
 S          5.0240627817       -0.8181877407       -0.0280504632
 O          5.8567580378       -1.5942240522       -0.9209627434
 O          4.8863978016       -1.3222015648        1.3187095427
 C          5.6177970408        0.8600266408        0.0052792219
 C          5.6635086429        1.5600891375       -1.1843108920
 C          6.1367793419        2.8623929146       -1.1762099930
 C          6.5565207204        3.4385290464        0.0136056969
 C          6.5074967340        2.7213095087        1.1989876050
 C          6.0343792246        1.4183002956        1.1977999214
 H          5.9727060647        0.8247431697        2.0960712189
 H          6.8349814078        3.1708459938        2.1226365705
 H          6.9245408019        4.4524066047        0.0166384985
 H          6.1752153152        3.4237426221       -2.0958970791
 H          5.3294344424        1.0773698890       -2.0875944225
 H          3.4369844201       -1.4293242106       -1.5010194900
 H          3.2772830849        1.0965393543        1.0959918019
 H          1.2335361051        1.5095438239        2.4243150140
 H         -0.7976823492        0.1697617465        2.0182343640
 H         -1.4724061462       -2.2373564891        1.2281127772
 C         -1.0788852676       -2.8923689165       -0.7679955662
 C         -0.4475089244       -4.2017931965       -0.4025725961
 C         -1.9284463373       -4.1167955853       -0.6153717577
 H         -2.3494934667       -4.5659054563       -1.5023377067
 H         -2.5746982130       -4.1680870072        0.2485561272
 H          0.1477299923       -4.7140762421       -1.1437100600
 H         -0.0845570141       -4.3161283619        0.6078139721
 H         -0.9290055191       -2.5127019307       -1.7726204928
