  62
        -98.93569146
 C          2.2045216894        0.8688025104        0.0996437799
 C          3.3867065395        0.9252080810        0.8804580297
 C          4.3036284797       -0.2289282689        0.8165868304
 C          3.9513597997       -1.2898818694        0.0678192011
 C          4.7163748999       -2.5649108294       -0.1702397182
 C          5.8868016198       -2.3819153199       -1.1489279684
 C          6.7389185796       -1.1397084896       -0.9034512393
 H          7.4689280996       -1.0730644400       -1.7144367694
 H          6.1050556795       -0.2533212997       -0.9650936598
 C          7.5048045898       -1.1264744087        0.4174217507
 H          8.1465042296       -0.2417440686        0.4099998800
 H          8.1520174699       -2.0049688086        0.4648908012
 C          6.6512251399       -1.0805796080        1.6871002807
 H          7.3143911099       -0.8124793974        2.5146305605
 H          6.2435265600       -2.0596347779        1.9242563914
 C          5.5365962897       -0.0396082082        1.6672172802
 H          5.1669763498        0.0963895924        2.6906087401
 H          5.9570460896        0.9320527317        1.3835021595
 H          5.4748574397       -2.3102885006       -2.1586978784
 H          6.5152314699       -3.2730246098       -1.1041724779
 H          4.0089007000       -3.2766150998       -0.6020845377
 H          5.0623472600       -2.9750276888        0.7739297420
 O          2.7880007997       -1.3177733100       -0.6410598988
 C          1.8902787495       -0.2624534001       -0.6554634894
 O          0.8913653695       -0.4710022307       -1.3702574892
 O          3.6767210194        1.9105222415        1.6107516991
 C          1.2555040593        2.0522314503        0.1957957592
 C         -0.1190168306        1.5560435803        0.5614102597
 C         -0.4088380504        1.2578335811        1.8894059599
 C         -1.6382832703        0.7340599812        2.2421782103
 C         -2.5964258304        0.4806352604        1.2761158506
 C         -2.3084212206        0.7560360196       -0.0534466196
 C         -1.0862598607        1.3159090796       -0.4011211101
 H         -0.8685183608        1.5188861390       -1.4381105602
 N         -3.2667326206        0.4792624289       -1.0437905894
 S         -4.0456866904       -1.0077921912       -0.9985405584
 O         -3.2408553302       -2.0320577707       -0.3747872178
 O         -4.4644550905       -1.2554895821       -2.3615705382
 C         -5.4922067603       -0.6858797008       -0.0073239984
 C         -5.7870518801       -1.5050465001        1.0648519121
 C         -6.9223547101       -1.2444777598        1.8165744720
 C         -7.7396476003       -0.1753302002        1.4836837514
 C         -7.4316545005        0.6362918292        0.4019741409
 C         -6.2989203205        0.3803715989       -0.3539986990
 H         -6.0259474007        0.9846185584       -1.2027727494
 H         -8.0695527506        1.4668984490        0.1462419604
 H         -8.6216471803        0.0262754801        2.0707913514
 H         -7.1628649799       -1.8752520893        2.6572923925
 H         -5.1184302100       -2.3209755199        1.2897683026
 H         -2.9357865907        0.6708546283       -1.9789154195
 H         -3.5495314103        0.0523132805        1.5401165309
 H         -1.8518246002        0.5127593918        3.2768995505
 H          0.3487856896        1.4306014517        2.6413604797
 H          1.6443250393        2.6397057509        1.0429358888
 C          1.2540968490        2.9820582995       -1.0079315414
 C          2.5392814389        3.3288426193       -1.6969659817
 C          1.4990549390        2.5229027887       -2.4126134411
 H          0.9410059888        2.9992113681       -3.2060679113
 H          1.6820713791        1.4735094586       -2.5815195804
 H          2.7041701588        4.3504629291       -2.0040427623
 H          3.4320740790        2.8221578496       -1.3602006115
 H          0.5394867989        3.7903687395       -0.8839675618
