  62
        -98.93186130
 C          1.8760996170        0.6735749671        0.7251816136
 C          2.2583165593        0.2437501383       -0.5683705338
 C          2.7241820159       -1.1477884551       -0.6647717884
 C          2.7117555016       -1.9273499547        0.4311989153
 C          3.2068118843       -3.3435144261        0.4822796244
 C          4.6925659459       -3.3994230140        0.8655476979
 C          5.5762137309       -2.4519103935        0.0539978032
 H          5.3035455524       -1.4210065648        0.2912487696
 H          6.6045313853       -2.5986524408        0.3912879358
 C          5.5013585568       -2.6585395239       -1.4652145307
 H          6.5150224933       -2.6406389599       -1.8708617009
 H          5.0812161294       -3.6406408924       -1.6845422553
 C          4.7035447641       -1.5881766015       -2.2123090553
 H          5.0599259355       -0.5965342114       -1.9229251786
 H          4.8949353430       -1.7062895734       -3.2820194313
 C          3.1830278938       -1.6286779252       -2.0128535248
 H          2.7325600751       -0.9469573280       -2.7402013156
 H          2.8110017709       -2.6361432771       -2.2097047889
 H          5.0426965591       -4.4254473348        0.7389416139
 H          4.7866880494       -3.1355734217        1.9215517396
 H          2.6246473679       -3.8831168704        1.2313224465
 H          3.0524018456       -3.8107917333       -0.4883449634
 O          2.2902204158       -1.4913528932        1.6474202475
 C          1.8713245792       -0.1837106554        1.8238504067
 O          1.5267440570        0.0937365789        2.9931047822
 H         -0.7389363381        0.6844491539        0.6756134025
 C         -0.7586272733        1.5028790747       -0.0314821700
 C          0.3107207256        2.3979180847       -0.0627507453
 C          0.2552010743        3.4339945691       -0.9845960946
 C         -0.8316576019        3.5628838575       -1.8353160241
 C         -1.8864646253        2.6741949697       -1.7935590762
 C         -1.8395815789        1.6206303960       -0.8851534480
 N         -2.8680158303        0.6647777658       -0.8545957916
 S         -3.1110190069       -0.2903562188        0.5076223376
 O         -3.2063631384        0.5327118158        1.6935593018
 O         -2.1184479030       -1.3369788042        0.5253418038
 C         -4.7092622839       -0.9778310126        0.1164682130
 C         -5.8439752315       -0.4098903377        0.6643540057
 C         -7.0840177394       -0.9304958420        0.3286475534
 C         -7.1681512090       -2.0027531525       -0.5466604944
 C         -6.0204739113       -2.5635548251       -1.0874460268
 C         -4.7775781487       -2.0484675831       -0.7549951030
 H         -3.8578851479       -2.4556007306       -1.1420881395
 H         -6.0892423050       -3.3991493022       -1.7651136829
 H         -8.1338852508       -2.4061232071       -0.8070145979
 H         -7.9773181100       -0.4988196851        0.7503138224
 H         -5.7277750927        0.4168123656        1.3465402437
 H         -3.7334857471        0.9894454223       -1.2620336287
 H         -2.7276873210        2.7780308126       -2.4612394116
 H         -0.8506936683        4.3760799525       -2.5451795680
 H          1.0566678231        4.1434173595       -1.0758261419
 C          1.3930089049        2.1017752339        0.9500806192
 H          0.8909380757        2.0827114577        1.9334876449
 C          2.6128156992        2.9937149146        1.1281363808
 C          3.3968141044        3.6240160248        0.0205269399
 C          2.6404898494        4.4862276318        0.9889809354
 H          3.2122357174        5.0408879587        1.7186536802
 H          1.7471569362        4.9945308830        0.6666169058
 H          4.4747283676        3.6007375452        0.0945925666
 H          3.0365279475        3.4939583294       -0.9867295380
 H          3.2056621781        2.5946969436        1.9499006387
 O          2.2164922411        0.9754903181       -1.5896792884
