  62
        -98.93889895
 C         -1.8992712140       -0.7648193815       -0.5620297668
 C         -2.6958277705       -0.8814231237        0.6078192342
 C         -3.7585557636        0.1140010699        0.7869564407
 C         -3.8988049005        1.0879360975       -0.1300602205
 C         -4.9594833255        2.1495651043       -0.0997850535
 C         -6.2129329304        1.7062609035       -0.8670812753
 C         -6.7087423289        0.3112856238       -0.4861278315
 H         -7.6127416519        0.1177207535       -1.0675559848
 H         -5.9642399026       -0.4265497172       -0.7936506492
 C         -7.0125165251        0.1313470842        1.0078101505
 H         -7.1226408991        1.1065899996        1.4833130636
 H         -7.9668647235       -0.3893492223        1.1106512409
 C         -5.9720987322       -0.6898111822        1.7717654417
 H         -6.3884634396       -0.9392285291        2.7513390337
 H         -5.7886419321       -1.6295491380        1.2450482292
 C         -4.6226870670       -0.0008981077        2.0111149759
 H         -4.7853864829        0.9811529066        2.4602805271
 H         -4.0565347407       -0.6133760020        2.7189632911
 H         -7.0033778150        2.4374996433       -0.6882666874
 H         -5.9829075344        1.7084786723       -1.9351015977
 H         -5.2130380923        2.3711849418        0.9352529382
 H         -4.5571344330        3.0503564030       -0.5666414169
 O         -3.1071857869        1.1850397876       -1.2258081256
 C         -2.0896732327        0.2658056102       -1.4830157316
 O         -1.4812559418        0.4952450333       -2.5426447291
 O         -2.5213675777       -1.7916089353        1.4620950676
 C         -0.7954282518       -1.8009678762       -0.6928264587
 C          0.3130562875       -1.4827776149        0.2804015305
 C          0.8531226875       -2.4777324440        1.0879572982
 C          1.8541115633       -2.1863177261        1.9967666740
 C          2.3493841911       -0.8991435913        2.1004678310
 C          1.8192519149        0.1022369385        1.2956127109
 C          0.8012907909       -0.1886807836        0.3989162367
 H          0.3915216594        0.6041231529       -0.2104306397
 N          2.3143937631        1.4247071599        1.3597664301
 S          3.2124665913        1.9241936568        0.0353710450
 O          3.6851662471        3.2502818902        0.3645194318
 O          2.4250671891        1.7886552888       -1.1608349413
 C          4.5881738928        0.7866716672        0.0033710153
 C          4.4105626452       -0.4576575656       -0.5684174945
 C          5.4523205536       -1.3706548344       -0.5205426084
 C          6.6453202911       -1.0267572060        0.0967094401
 C          6.8084662023        0.2274146832        0.6655308791
 C          5.7691270120        1.1430156939        0.6250720099
 H          5.8511725632        2.1303312951        1.0502912740
 H          7.7384452443        0.4934364767        1.1416279630
 H          7.4527977254       -1.7408035437        0.1325889338
 H          5.3249725770       -2.3450280646       -0.9637892423
 H          3.4718055063       -0.6877373460       -1.0459599284
 H          2.8419300138        1.6138885282        2.2017702639
 H          3.1330918379       -0.6647129404        2.8052963196
 H          2.2546651515       -2.9666061394        2.6251368619
 H          0.4639463502       -3.4822639556        1.0138465107
 H         -1.2469063596       -2.7505858629       -0.3595250526
 C         -0.2836826947       -2.0257777616       -2.1056262523
 C          0.9058342542       -1.3186579794       -2.6734826710
 C          0.9969495661       -2.7746367929       -2.3349576133
 H          1.0380529103       -3.4874481986       -3.1444693527
 H          1.5738425576       -3.0542377610       -1.4661103251
 H          0.8572759993       -1.0232799088       -3.7105740373
 H          1.4132885275       -0.5915177051       -2.0580699057
 H         -1.0957252261       -2.2188892063       -2.7989923815
