  62
        -98.94508259
 C         -1.3632219874       -1.4459964928        0.4106741625
 C         -1.8491878169       -0.4245567914        1.2651232658
 C         -2.8177407673        0.5075238422        0.6792491462
 C         -3.1584841557        0.3848409001       -0.6159843407
 C         -4.1267000594        1.2603350099       -1.3638377197
 C         -3.5033464086        2.5634798104       -1.8830550012
 C         -3.2370652621        3.6274500131       -0.8172786150
 H         -3.0308038612        4.5612819044       -1.3441932183
 H         -4.1380668151        3.7799141897       -0.2213392198
 C         -2.0506268758        3.3151105689        0.1053474977
 H         -1.4135148155        2.5627813763       -0.3680540421
 H         -1.4365093875        4.2121686819        0.2213072934
 C         -2.4438940816        2.8522772606        1.5087870952
 H         -1.5306660369        2.6228474860        2.0634599490
 H         -2.9547715780        3.6663418812        2.0285064184
 C         -3.3465492637        1.6124827506        1.5441270220
 H         -4.3585243927        1.8778573046        1.2383972928
 H         -3.3765184987        1.2422530550        2.5721639103
 H         -2.5669491171        2.3246924068       -2.3943553871
 H         -4.1903297004        2.9827306191       -2.6222366563
 H         -4.9830470514        1.4912890007       -0.7290865791
 H         -4.4741649471        0.6789511276       -2.2206858730
 O         -2.6538630424       -0.5920088685       -1.4128346410
 C         -1.7254604264       -1.5096421812       -0.9364677068
 O         -1.3240135555       -2.3101973231       -1.8019038086
 O         -1.4825428850       -0.2927092361        2.4638503605
 C         -0.3069381341       -2.3824909810        0.9692004226
 C          0.9038279561       -2.3985167148        0.0667398902
 C          1.6313001529       -3.5384040310       -0.2483848715
 C          2.7399385373       -3.4505617910       -1.0741701264
 C          3.1474541892       -2.2385811753       -1.5999041515
 C          2.4218154829       -1.0913499678       -1.2940063130
 C          1.3269063576       -1.1825340900       -0.4532315435
 H          0.7541128879       -0.2950611594       -0.2392577649
 N          2.7726623424        0.1503263525       -1.8294572996
 S          2.1720725511        1.5959317281       -1.2752724212
 O          0.7488371579        1.6827307492       -1.4910881491
 O          2.9771837369        2.5872487435       -1.9571116405
 C          2.5518419319        1.6282705447        0.4672419285
 C          1.5393264205        1.6611325801        1.4032349171
 C          1.8657049645        1.6504869306        2.7498817801
 C          3.1962526411        1.6131776826        3.1360757438
 C          4.2049237544        1.5934186397        2.1841919281
 C          3.8824910303        1.5976189445        0.8371578308
 H          4.6386894867        1.5898234251        0.0694224446
 H          5.2388351252        1.5693216014        2.4886006313
 H          3.4463077402        1.6010023737        4.1851670354
 H          1.0743829321        1.6557364395        3.4829209373
 H          0.5122289009        1.6842742357        1.0730474125
 H          3.6508808571        0.2138247311       -2.3175771818
 H          4.0032172730       -2.1787290601       -2.2542884509
 H          3.2937209673       -4.3447948247       -1.3171309108
 H          1.3231958344       -4.4983170425        0.1319539175
 H         -0.0022164905       -1.9017818462        1.9155669313
 C         -0.8100050046       -3.7707516823        1.3388851540
 C         -2.2731326019       -4.0570893410        1.4925526681
 C         -1.5087469533       -4.6555707170        0.3519046438
 H         -1.3008107369       -5.7154108468        0.3753143049
 H         -1.6718343310       -4.2600765616       -0.6380871654
 H         -2.5873801527       -4.7009319298        2.3005544492
 H         -2.9668689333       -3.2574339368        1.2751808463
 H         -0.1560476889       -4.2644442411        2.0510178934
