  62
        -98.93933876
 C         -2.6517314598       -1.0658922201        0.1932759609
 C         -2.3123197000       -0.1747303896       -0.8553840088
 C         -2.9492827802        1.1511913103       -0.8002594981
 C         -3.7943944200        1.4421320298        0.2041008522
 C         -4.4488221001        2.7757988196        0.4166928829
 C         -3.5908138501        3.6725876893        1.3208908532
 C         -2.1198649702        3.7423695596        0.9088639530
 H         -1.6207365901        4.4222600894        1.6030943932
 H         -1.6649343400        2.7576970396        1.0420240024
 C         -1.8845390904        4.2180895903       -0.5317266069
 H         -1.0738956405        4.9497546004       -0.5295481367
 H         -2.7762588106        4.7241062504       -0.9034699665
 C         -1.4853962405        3.1114085308       -1.5098845974
 H         -0.6489457804        2.5400331307       -1.0990665978
 H         -1.1384507607        3.5829925312       -2.4328792073
 C         -2.5975612504        2.1255057608       -1.8890106877
 H         -3.4820261205        2.6743972009       -2.2180032173
 H         -2.2339483305        1.5220078413       -2.7256746080
 H         -3.6417452799        3.2848686488        2.3412424230
 H         -4.0188697202        4.6766302692        1.3183666437
 H         -5.4167723801        2.6138623593        0.8939563730
 H         -4.6056667703        3.2565711500       -0.5468163869
 O         -4.1026500298        0.5588301593        1.1887503618
 C         -3.5193402097       -0.6981889507        1.2240575412
 O         -3.8428732494       -1.3830753511        2.2158557709
 O         -1.5168563602       -0.4522346991       -1.7878727390
 C         -2.0104596396       -2.4393203301        0.3034885601
 C         -0.5243155997       -2.3208659098        0.0602181900
 C          0.1651299902       -3.0470711993       -0.9012689705
 C          1.5272205902       -2.8671467291       -1.0661813806
 C          2.2285704902       -1.9621684694       -0.2906706603
 C          1.5494717203       -1.2317101799        0.6766197901
 C          0.1871400104       -1.4288888601        0.8529085202
 H         -0.3431915096       -0.8601690005        1.6077716306
 N          2.2156055503       -0.2794156502        1.4491437305
 S          3.8602123303       -0.1025149300        1.5609792703
 O          4.5234657605       -1.3674943701        1.7762760396
 O          4.0431751804        0.8935838995        2.5933625407
 C          4.3401757500        0.5754776307       -0.0142644595
 C          3.6182804798        1.6402680809       -0.5157260789
 C          3.9850102696        2.1829779515       -1.7365541387
 C          5.0647146095        1.6571500019       -2.4301109991
 C          5.7831061297        0.5912667817       -1.9111600397
 C          5.4193712000        0.0430425511       -0.6911841699
 H          5.9459980101       -0.7901420390       -0.2535366704
 H          6.6224698597        0.1846357021       -2.4519474700
 H          5.3465166993        2.0810357923       -3.3809847790
 H          3.4260803394        3.0105240416       -2.1430781082
 H          2.7849148799        2.0236574105        0.0499813814
 H          1.6868353004        0.1719792794        2.1760514007
 H          3.2897305402       -1.8260949192       -0.4172757804
 H          2.0521695401       -3.4343677187       -1.8197439110
 H         -0.3653697298       -3.7354584991       -1.5377378807
 H         -2.1533755594       -2.7348793206        1.3567069500
 C         -2.6793341696       -3.5155289598       -0.5382691502
 C         -4.1248836497       -3.4098309197       -0.9207667500
 C         -3.0619405499       -3.2915170392       -1.9691735501
 H         -2.9391422199       -4.1082713188       -2.6655149205
 H         -2.8586962001       -2.3211404990       -2.3925621597
 H         -4.7281076996       -4.3050233098       -0.8937724203
 H         -4.6575201398       -2.5171936299       -0.6255816795
 H         -2.3268886195       -4.5088217999       -0.2771106108
