  62
        -98.94509712
 C          2.5640005476        0.0273158650        0.3612555977
 C          2.2197340098       -0.5845775226       -0.8683515390
 C          1.9336891169       -2.0247784192       -0.8090813913
 C          2.0320177028       -2.6695145775        0.3672517329
 C          1.7989990101       -4.1395674595        0.5654598055
 C          0.3527461768       -4.4494691198        0.9705056941
 C         -0.7009174876       -3.7950634624        0.0771225380
 H         -1.6769299222       -4.1488810202        0.4184272637
 H         -0.6877083758       -2.7134872996        0.2292629344
 C         -0.5476369350       -4.0915966480       -1.4209559282
 H          0.0647738010       -4.9829831880       -1.5654638260
 H         -1.5361956654       -4.3050219504       -1.8326444986
 C          0.0321443459       -2.9322410898       -2.2347073855
 H         -0.4806786525       -2.0075746809       -1.9565459280
 H         -0.1696070939       -3.1216131483       -3.2926322915
 C          1.5428082826       -2.7050180080       -2.0900936394
 H          2.0733599716       -3.6529984105       -2.2057162297
 H          1.8601295583       -2.0322540071       -2.8923045505
 H          0.2206275072       -5.5336100891        0.9578676204
 H          0.1956883285       -4.0993727556        1.9936879934
 H          2.0471490547       -4.6624802204       -0.3564412271
 H          2.4672784022       -4.4831883944        1.3576936516
 O          2.3605898607       -2.0460076265        1.5296315887
 C          2.6051285131       -0.6829272298        1.5587477955
 O          2.8595954334       -0.2295607226        2.6958468497
 H          0.2595082356        0.9297184056        0.5982651204
 C          0.4137345238        1.8502545788        0.0540834426
 C          1.7069915564        2.3139052911       -0.1471746863
 C          1.8814280020        3.5152440087       -0.8228721799
 C          0.7854376249        4.2188010814       -1.2927299908
 C         -0.4977398351        3.7367609482       -1.1169650302
 C         -0.6824436545        2.5299595163       -0.4486179336
 N         -1.9691744556        1.9828621773       -0.3192013506
 S         -2.2598507828        0.6110448000        0.5998094306
 O         -1.9974983376        0.8651947437        2.0018279848
 O         -1.5692059412       -0.5036801445        0.0061081466
 C         -4.0143789703        0.4453262725        0.3340589985
 C         -4.4530946197       -0.2269875708       -0.7906300247
 C         -5.8156803212       -0.3306905709       -1.0209854450
 C         -6.7122278087        0.2377298228       -0.1283037270
 C         -6.2575412007        0.9064426030        0.9983262892
 C         -4.8958429362        1.0137795970        1.2339832457
 H         -4.4966958506        1.5136286885        2.1019843247
 H         -6.9569007069        1.3433841929        1.6927449890
 H         -7.7721693302        0.1557911936       -0.3099943547
 H         -6.1721571143       -0.8537064785       -1.8936490321
 H         -3.7180728892       -0.6586900920       -1.4501606279
 H         -2.7133659607        2.6630113039       -0.2756182358
 H         -1.3495533187        4.2770004359       -1.4996435202
 H          0.9346991127        5.1539695056       -1.8108571424
 H          2.8757304777        3.8998247498       -0.9819147113
 C          2.8614604188        1.5139857199        0.4087357697
 H          2.9708112348        1.7688951212        1.4744538387
 C          4.1715950183        1.8025328867       -0.2990306454
 C          5.0834768135        2.8854175921        0.1921819420
 C          5.4550570226        1.4472191733        0.3875616356
 H          6.2590517458        1.0334797630       -0.2022163258
 H          5.3814617575        1.0280121651        1.3809302739
 H          4.7726769975        3.4471334294        1.0602971491
 H          5.6382654225        3.4605473515       -0.5338331006
 H          4.1094269097        1.6271266962       -1.3669981245
 O          2.1723032106        0.0367441035       -1.9625824128
