  62
        -98.93846541
 C          2.2444101664        1.2078536033        0.2722821453
 C          2.4089970836        0.1129667576       -0.6069909737
 C          3.3112756294       -0.9656975742       -0.1586449706
 C          3.9102271724       -0.8804980197        1.0430564948
 C          4.8243728126       -1.8398034843        1.7764596360
 C          5.4897638599       -3.0026587504        1.0448510816
 C          6.5311099156       -2.5923932621        0.0042365660
 H          7.3951913383       -2.1718456492        0.5246165259
 H          6.8630344343       -3.4918564047       -0.5188413364
 C          6.0663287684       -1.5630620350       -1.0228075351
 H          5.8286352922       -0.6238068278       -0.5193869734
 H          6.9027413085       -1.3637479165       -1.6981058100
 C          4.8716289089       -1.9843444353       -1.8760898057
 H          4.7513840649       -1.2374797055       -2.6654196755
 H          5.0798524418       -2.9439974934       -2.3531886883
 C          3.5289391533       -2.0889252479       -1.1317805167
 H          2.7259797220       -2.0162108608       -1.8712876658
 H          3.4235137791       -3.0507037275       -0.6350980805
 H          4.7376111140       -3.6467499518        0.5986274997
 H          6.0013837809       -3.5964631359        1.8072402241
 H          5.5981305357       -1.2177004783        2.2374553007
 H          4.2256664521       -2.2464270977        2.5992747898
 O          3.7048983142        0.1868621461        1.8686112583
 C          2.8874990564        1.2411242199        1.5128147861
 O          2.8182894280        2.1433468048        2.3707470713
 H         -0.2416765359        0.7211945406       -1.4440172956
 C         -0.7602550770        1.1473039219       -0.5982166279
 C         -0.0919767220        2.0362018672        0.2316894264
 C         -0.7619961917        2.5427117808        1.3394757706
 C         -2.0676175003        2.1688036494        1.6048494255
 C         -2.7288038632        1.2796299100        0.7762771367
 C         -2.0631548285        0.7584297204       -0.3250762422
 N         -2.7197863937       -0.1643127603       -1.1627767603
 S         -3.3492993950       -1.5363845370       -0.4225683497
 O         -2.6251697274       -1.8690976765        0.7834846320
 O         -3.3829351844       -2.5498049150       -1.4546843534
 C         -5.0205339433       -1.0667252854       -0.0239298862
 C         -5.4709992417       -1.1556263681        1.2785200307
 C         -6.7784246592       -0.7915141134        1.5616754804
 C         -7.6075612528       -0.3482901752        0.5427132375
 C         -7.1404121547       -0.2671337910       -0.7608319597
 C         -5.8350383529       -0.6303876636       -1.0506871286
 H         -5.4333436540       -0.5859868758       -2.0491709941
 H         -7.7881569851        0.0780241270       -1.5504660020
 H         -8.6240023406       -0.0649214429        0.7659753466
 H         -7.1431121685       -0.8544553614        2.5743639846
 H         -4.7880307518       -1.5005875263        2.0385754121
 H         -2.1610874704       -0.4314467763       -1.9617980396
 H         -3.7428698785        0.9777521351        0.9820990636
 H         -2.5748710905        2.5709284735        2.4685992332
 H         -0.2421810063        3.2171725109        2.0046916258
 C          1.3496120619        2.4019098696       -0.0303542665
 H          1.6355297335        3.1736302275        0.6965862207
 C          1.5513826925        2.9605903059       -1.4248158076
 C          1.1126355500        4.3636830580       -1.7127306581
 C          2.5729137449        4.0345420426       -1.6405654605
 H          3.1472621469        4.0220685523       -2.5547597792
 H          3.1313514358        4.3734479325       -0.7798758661
 H          0.6815741443        4.5804449855       -2.6779463540
 H          0.6805541217        4.9280284100       -0.9002480017
 H          1.4364464121        2.2244048745       -2.2088846453
 O          1.8373058753        0.0082723277       -1.7262658568
