  62
        -98.94416358
 C          2.1979450091        0.7662988969       -0.0567015408
 C          2.9021134782        0.0989711719        0.9730122257
 C          3.6951394246       -1.0629511727        0.5562111503
 C          3.6791537871       -1.4539953161       -0.7313623656
 C          4.4161788918       -2.6326965051       -1.3072121757
 C          5.8777534313       -2.3362447771       -1.6702628622
 C          6.8259104605       -2.1839049327       -0.4801975160
 H          6.7222799699       -3.0467396925        0.1785504115
 H          7.8427846140       -2.1977964708       -0.8773685697
 C          6.6293384040       -0.8920681230        0.3254502089
 H          7.6014094543       -0.4353837048        0.5244480476
 H          6.0550264354       -0.1763533804       -0.2672970065
 C          5.9363373127       -1.0849335343        1.6743712649
 H          5.8169188339       -0.1040532521        2.1417250135
 H          6.5660286543       -1.6937699765        2.3269466648
 C          4.5509610258       -1.7384088638        1.5849455567
 H          4.6495417420       -2.8006396217        1.3616883629
 H          4.0562890498       -1.6287233973        2.5534569885
 H          6.2341407018       -3.1641698904       -2.2873964402
 H          5.9089583252       -1.4300496765       -2.2794495742
 H          4.3757663884       -3.4687362760       -0.6083130397
 H          3.8853789594       -2.9150090881       -2.2189316812
 O          2.9499924924       -0.8131364140       -1.6831521194
 C          2.2079410255        0.3196943793       -1.3784435559
 O          1.6103958194        0.8180087990       -2.3499069264
 H         -0.0647201822       -0.1665652694        0.8404905210
 C         -0.6662867284        0.5781255834        0.3324377385
 C         -0.0756522865        1.7776838653       -0.0467227787
 C         -0.8640913686        2.7293687531       -0.6795689603
 C         -2.1985757096        2.4716174737       -0.9429681453
 C         -2.7756190868        1.2687637518       -0.5814393595
 C         -2.0006977540        0.3148866919        0.0658375472
 N         -2.5769328807       -0.9149004740        0.4329417732
 S         -3.9896600310       -0.8804898081        1.3423546105
 O         -4.0707745914        0.3177128317        2.1452833955
 O         -4.0091941752       -2.1373947512        2.0585693991
 C         -5.2862268268       -0.8877966238        0.1224761681
 C         -5.3282472219       -1.9359211808       -0.7759443444
 C         -6.3345507457       -1.9605519414       -1.7282120928
 C         -7.2773765987       -0.9438263263       -1.7642751331
 C         -7.2233737713        0.0996868281       -0.8530100428
 C         -6.2189167786        0.1306095113        0.1019252819
 H         -6.1341229048        0.9234079096        0.8279514906
 H         -7.9575233386        0.8886822749       -0.8826177855
 H         -8.0591104705       -0.9655702941       -2.5070291869
 H         -6.3798511578       -2.7703910409       -2.4384611414
 H         -4.5789849013       -2.7073334133       -0.7114016019
 H         -1.9171409566       -1.5650334876        0.8351027543
 H         -3.8119335858        1.0619384620       -0.7926286745
 H         -2.7968798832        3.2183013296       -1.4422286510
 H         -0.4331871465        3.6729555596       -0.9710489748
 C          1.3798342529        1.9965440030        0.2876271382
 H          1.4615801728        2.1051383532        1.3802244242
 C          1.9757731845        3.2248023757       -0.3683342468
 C          1.8480516673        4.5689446976        0.2819978943
 C          3.1729157467        3.8694738570        0.2614543131
 H          3.9512989673        4.2522599434       -0.3814151745
 H          3.5402045668        3.4392291405        1.1820236701
 H          1.7190958451        5.4364293041       -0.3474908358
 H          1.3182624154        4.6217555269        1.2212003075
 H          1.9475247015        3.1716907705       -1.4508813999
 O          2.8623996213        0.4518388260        2.1835481959
