  62
        -98.93432177
 C         -2.3233305469       -1.1842129530        0.0873978668
 C         -3.2540986989       -0.5237269512        0.9242150113
 C         -4.1444753210        0.4712007336        0.2948094114
 C         -3.9976737192        0.7267989784       -1.0183894616
 C         -4.7526193330        1.7149480710       -1.8672344431
 C         -4.3004518098        3.1650788728       -1.6322835195
 C         -4.1120979924        3.5501262378       -0.1672257312
 H         -3.6916322716        4.5589906055       -0.1402042376
 H         -3.3778846193        2.8824363105        0.2879517897
 C         -5.3862667615        3.5530358976        0.6742017810
 H         -6.1046860902        4.2476262496        0.2333034117
 H         -5.1204260125        3.9345885902        1.6635018938
 C         -6.0708375794        2.1967871107        0.8579071522
 H         -6.6342810253        1.9175586816       -0.0283340434
 H         -6.7994228212        2.3074876813        1.6663740603
 C         -5.1374192361        1.0616441290        1.2669654335
 H         -5.7462752399        0.2180340310        1.6147311920
 H         -4.5550857993        1.3731701183        2.1419265563
 H         -5.0287832079        3.8328449570       -2.0952788433
 H         -3.3426230384        3.3061899559       -2.1389940747
 H         -5.8206432478        1.6102645395       -1.7012193728
 H         -4.5498234497        1.4525550491       -2.9078765264
 O         -3.0491000044        0.1064427267       -1.7752068391
 C         -2.1910544737       -0.8516922633       -1.2611912712
 O         -1.3827901471       -1.3046049416       -2.0914905777
 O         -3.3383044233       -0.7464689828        2.1632197163
 C         -1.4082319461       -2.2145727279        0.7226848164
 C          0.0240187641       -1.9635516779        0.3204317772
 C          0.8375564015       -2.9163750617       -0.2767249503
 C          2.1471387138       -2.6117139751       -0.6061450612
 C          2.6721885933       -1.3589082468       -0.3519090916
 C          1.8688922263       -0.3977668816        0.2484963035
 C          0.5618685960       -0.7095667707        0.5870334984
 H         -0.0640799673        0.0407472345        1.0567003772
 N          2.3888731497        0.8860376851        0.4943739497
 S          3.8409313449        1.0037620604        1.3294816170
 O          4.0153239057       -0.1015898579        2.2435910945
 O          3.8317241661        2.3261138746        1.9167445157
 C          5.0810229493        0.9432570476        0.0540171510
 C          6.0890842542        0.0013840036        0.1190420915
 C          7.0493644708       -0.0219525914       -0.8804770877
 C          6.9854087820        0.8928182220       -1.9203404932
 C          5.9679246710        1.8342747301       -1.9692098189
 C          5.0054325287        1.8637800421       -0.9727805536
 H          4.2003063199        2.5795886628       -0.9728171542
 H          5.9211065804        2.5436756721       -2.7796973758
 H          7.7325036888        0.8720196236       -2.6979564939
 H          7.8410094653       -0.7529238870       -0.8443838842
 H          6.0942179735       -0.6935929715        0.9434871754
 H          1.7112440148        1.5324007530        0.8717959246
 H          3.6885624130       -1.1169600101       -0.6160943244
 H          2.7659976956       -3.3606310275       -1.0763040258
 H          0.4423580411       -3.8925906339       -0.5034067170
 H         -1.4888555407       -2.0166231223        1.8056210764
 C         -1.8513841099       -3.6555162081        0.5173397000
 C         -3.2872506173       -3.9943761085        0.2532189477
 C         -2.2627666308       -4.1852681581       -0.8225662199
 H         -1.9783629611       -5.1942615412       -1.0832891490
 H         -2.2525434239       -3.4988941359       -1.6543254770
 H         -3.7036090907       -4.8680326377        0.7319583708
 H         -3.9859388273       -3.1760402050        0.1549243885
 H         -1.3119028581       -4.3390433166        1.1660564242
