  62
        -98.94477689
 C         -1.9849365583        1.0862854541        0.3033743323
 C         -3.0903619294        1.1919188336       -0.5830484302
 C         -4.3279555105        0.5182359663       -0.1731007999
 C         -4.3574996344       -0.1398343871        0.9997057952
 C         -5.5308262566       -0.9174147935        1.5195857014
 C         -5.4643490704       -2.3859571318        1.0771692627
 C         -5.1992761731       -2.5701497048       -0.4172129945
 H         -4.1956566026       -2.2058934230       -0.6494647455
 H         -5.2041099649       -3.6437416909       -0.6180894574
 C         -6.2154799966       -1.8738740957       -1.3333464575
 H         -6.5006386121       -2.5657064814       -2.1286844859
 H         -7.1194495174       -1.6368514756       -0.7711246572
 C         -5.6933982628       -0.6059760578       -2.0118029328
 H         -6.4029365423       -0.3222783133       -2.7936683265
 H         -4.7379538806       -0.8180575902       -2.4984458849
 C         -5.5091009173        0.6115433157       -1.0972911512
 H         -6.4265364928        0.7896876496       -0.5326342153
 H         -5.3228310286        1.4806630234       -1.7348543544
 H         -6.4057720954       -2.8698474889        1.3438204077
 H         -4.6608985850       -2.8785915285        1.6299292354
 H         -5.5164961185       -0.8747200976        2.6099950715
 H         -6.4505941521       -0.4602341720        1.1598560059
 O         -3.2890221585       -0.2073296514        1.8306586709
 C         -2.0778662651        0.3880394805        1.5072027752
 O         -1.1991139574        0.2164019489        2.3768646725
 O         -3.0425720359        1.8302270745       -1.6679804280
 C         -0.7023693603        1.7788597260       -0.1282394004
 C          0.2901436020        0.7908233418       -0.6932944337
 C          0.6379583233        0.8222418969       -2.0386934481
 C          1.5559476088       -0.0777373521       -2.5523173778
 C          2.1473888740       -1.0233198284       -1.7346852883
 C          1.8045883201       -1.0629738797       -0.3888392398
 C          0.8887621636       -0.1568910649        0.1252275933
 H          0.6165290218       -0.2025051299        1.1690857332
 N          2.4120442886       -2.0134226458        0.4523080843
 S          4.0839918238       -2.0992796607        0.3915352531
 O          4.4821977072       -2.9297043766       -0.7182503219
 O          4.4979110908       -2.5566315758        1.6993430041
 C          4.6155270912       -0.4195185827        0.1082107814
 C          4.3062022643        0.5284453034        1.0635110424
 C          4.6620907757        1.8476379989        0.8372413896
 C          5.3145147004        2.1956935689       -0.3356720376
 C          5.6223191420        1.2313913301       -1.2823947139
 C          5.2683398438       -0.0901364923       -1.0619236501
 H          5.4847776630       -0.8711302856       -1.7724000736
 H          6.1315089499        1.5046045940       -2.1925110604
 H          5.5841709408        3.2252161758       -0.5106094833
 H          4.4250811764        2.5985487837        1.5737394219
 H          3.7992789628        0.2256949559        1.9660223035
 H          2.0832096924       -1.9703773848        1.4061429262
 H          2.8613297456       -1.7357985123       -2.1153911475
 H          1.8138383098       -0.0427956271       -3.5996382140
 H          0.1718685144        1.5509154116       -2.6857271889
 H         -1.0047816753        2.4491726084       -0.9437380528
 C         -0.0712293331        2.6143362781        0.9690895363
 C          0.9105367928        3.6816662108        0.5929340699
 C         -0.4489377682        4.0580307953        1.0992073805
 H         -0.5356957520        4.4797415830        2.0894403882
 H         -1.1663670889        4.4525453187        0.3944065024
 H          1.7609462640        3.8473892784        1.2357132414
 H          1.1178392159        3.8217921208       -0.4568684561
 H          0.1055812893        2.0644431809        1.8840126229
