  62
        -98.94371840
 C         -1.2717061401       -0.8867771105        0.1880811502
 C         -1.7308067799        0.2200491900        0.9457094795
 C         -2.7632946199        1.0508886597        0.3180660291
 C         -3.1424135100        0.7965084490       -0.9469108708
 C         -4.1570071500        1.5735149786       -1.7412360612
 C         -5.6104093200        1.1543977089       -1.4803577909
 C         -6.1775633199        1.5813295297       -0.1258734911
 H         -6.0155285698        2.6507455298        0.0128162282
 H         -7.2562135499        1.4171727898       -0.1645708110
 C         -5.6037820999        0.8117257104        1.0719718093
 H         -5.1178505800       -0.1005902198        0.7181656399
 H         -6.4182597999        0.5052162709        1.7320188196
 C         -4.6091124198        1.6062624909        1.9184896388
 H         -5.1181922897        2.4537375912        2.3826253083
 H         -4.2417142498        0.9557327413        2.7162835792
 C         -3.3962074698        2.1329055003        1.1396524484
 H         -3.6887564297        2.9699068599        0.5055087979
 H         -2.6502851697        2.4841076707        1.8571240182
 H         -5.6838734201        0.0690423088       -1.5811651602
 H         -6.2236749700        1.6031168584       -2.2652086311
 H         -4.0406015999        2.6390276687       -1.5394593919
 H         -3.9289127100        1.3942756179       -2.7943365811
 O         -2.6069455701       -0.2154555515       -1.6786180002
 C         -1.6697419002       -1.0863057013       -1.1346448497
 O         -1.2827199303       -1.9644702318       -1.9279837492
 H          1.0106984500        0.1908978689       -0.4392575006
 C          1.4934925599       -0.7518789112       -0.6463458700
 C          0.9657503098       -1.9192082508       -0.1097507993
 C          1.5711469797       -3.1268313411       -0.4297775586
 C          2.6719071597       -3.1535647317       -1.2694663686
 C          3.2033329797       -1.9870175721       -1.7875188394
 C          2.6007713299       -0.7727923218       -1.4762912701
 N          3.0976745799        0.4367760978       -1.9829552009
 S          2.9799798901        1.8326573384       -1.0747153917
 O          1.6286546501        2.3362735685       -1.0896192320
 O          3.9835511101        2.7088856180       -1.6411835823
 C          3.4636675401        1.3515364494        0.5743581986
 C          4.7779432001        0.9685999994        0.7636318887
 C          5.1818902601        0.5471602901        2.0193353890
 C          4.2671130902        0.5103620308        3.0611561790
 C          2.9538705602        0.9033294408        2.8574557589
 C          2.5448505002        1.3298309701        1.6032919786
 H          1.5270023402        1.6373352301        1.4186313185
 H          2.2364209902        0.8757060614        3.6622748689
 H          4.5782677602        0.1759752114        4.0381885192
 H          6.2042663301        0.2465069801        2.1817121691
 H          5.4616260301        1.0209904388       -0.0679619113
 H          3.9735789099        0.3709882674       -2.4791902109
 H          4.0632245997       -2.0121967025       -2.4389675294
 H          3.1270099296       -4.0996165019       -1.5203242480
 H          1.1708346797       -4.0491392708       -0.0426120380
 C         -0.2165521601       -1.7781530802        0.8162098507
 H          0.1267487000       -1.2032939897        1.6942352703
 C         -0.7395395302       -3.1030669498        1.3508868015
 C         -2.1908987202       -3.2898967595        1.6754065917
 C         -1.5799920703       -4.0271867802        0.5235110921
 H         -1.4225596104       -5.0911990402        0.6242520428
 H         -1.8250927003       -3.7131557808       -0.4785767780
 H         -2.8621453001       -2.4712845496        1.4580757112
 H         -2.4513726702       -3.8436100689        2.5650744521
 H         -0.0367883202       -3.5692296594        2.0345161418
 O         -1.2902402099        0.5039845407        2.0920120093
