  62
        -98.94371675
 C         -1.7505024362       -0.4717656670        0.5184703228
 C         -2.9482480713       -0.4281763232        1.2705904858
 C         -4.1840547972       -0.6670562176        0.5169492403
 C         -4.1214253279       -0.9286627355       -0.8015917857
 C         -5.2921497733       -1.2156138305       -1.7024035618
 C         -5.9905950624        0.0418737932       -2.2378354707
 C         -6.8238923361        0.8100591326       -1.2112031058
 H         -7.4258567468        1.5340823786       -1.7639519849
 H         -7.5128831907        0.1242442512       -0.7171860023
 C         -5.9963030164        1.5591647646       -0.1574124685
 H         -4.9646209638        1.6535001541       -0.5045625959
 H         -6.3874459084        2.5723189859       -0.0394375915
 C         -5.9955611518        0.9098259153        1.2266738618
 H         -7.0057818038        0.9298996807        1.6415227907
 H         -5.3511785880        1.5009704045        1.8826918821
 C         -5.4883225062       -0.5382410335        1.2444014310
 H         -5.3195684545       -0.8295964038        2.2840430057
 H         -6.2346812397       -1.2036893243        0.8112548786
 H         -5.2352612276        0.7059124279       -2.6644609941
 H         -6.6522680175       -0.2728738900       -3.0480795151
 H         -4.8993919132       -1.7785843738       -2.5517243387
 H         -6.0156294245       -1.8391213291       -1.1764732216
 O         -2.9468635058       -0.9823502512       -1.4839643401
 C         -1.7367611996       -0.7331816229       -0.8517634128
 O         -0.7455467520       -0.7808294731       -1.6035081871
 H          2.1846682794        0.0822685508        0.3974077733
 C          1.5911383883        0.9656371338        0.2359028814
 C          0.2555243266        0.9844068930        0.6032414392
 C         -0.4760978382        2.1517180902        0.3963844354
 C          0.1107620713        3.2602618862       -0.1805621156
 C          1.4430447752        3.2337350759       -0.5550900199
 C          2.1855868716        2.0791158381       -0.3435708360
 N          3.5269044672        2.0119479377       -0.7395776646
 S          4.6438321969        1.1147799605        0.1151559091
 O          4.4160776587        1.1918744016        1.5394762788
 O          5.9257505257        1.6058537802       -0.3446327124
 C          4.4293905035       -0.5595852506       -0.4507757980
 C          4.6235712672       -1.5916455787        0.4460472982
 C          4.4921515650       -2.8987788598        0.0046077552
 C          4.1715022271       -3.1496402004       -1.3204576038
 C          3.9837194228       -2.1021427233       -2.2091989094
 C          4.1169448956       -0.7930279539       -1.7750195059
 H          3.9694345962        0.0420933612       -2.4391975155
 H          3.7288918653       -2.3007322621       -3.2378066594
 H          4.0649302626       -4.1672814054       -1.6619016805
 H          4.6374560306       -3.7151593597        0.6943381975
 H          4.8612028756       -1.3496689731        1.4700101287
 H          3.9166075383        2.8655292101       -1.1101589740
 H          1.9022750071        4.0977830897       -1.0107681696
 H         -0.4713466296        4.1558097572       -0.3389847319
 H         -1.5169112890        2.1745445452        0.6901403308
 C         -0.4307795298       -0.2090466628        1.2199432398
 H         -0.6954489819        0.0471110657        2.2570796348
 C          0.4195400037       -1.4618252034        1.2297332127
 C          1.4126545667       -1.6940985498        2.3275659701
 C          0.1561030243       -2.5082114420        2.2691496771
 H          0.2270033397       -3.5469256273        1.9840971002
 H         -0.6215575899       -2.3051312007        2.9909371219
 H          2.3470070456       -2.1745916377        2.0803118389
 H          1.4982583905       -0.9380437849        3.0936322875
 H          0.6725085329       -1.8006379219        0.2310054819
 O         -2.9827063484       -0.1979541493        2.5096070521
