  62
        -98.94472904
 C         -1.5081520554       -1.7695951993       -0.4696619258
 C         -1.5391063255       -0.5955420665       -1.2632478778
 C         -2.7444847327        0.2400164639       -1.1277018284
 C         -3.7166856501       -0.1246390838       -0.2746840612
 C         -4.9678074395        0.6594707562       -0.0061396894
 C         -4.7808021243        1.6315392575        1.1664208178
 C         -3.5264112973        2.4998286347        1.0625330641
 H         -2.6358052430        1.8739520429        1.1613368192
 H         -3.5294123311        3.1791071778        1.9183673242
 C         -3.4197329549        3.3140951799       -0.2340609732
 H         -3.1030100751        4.3284829034        0.0178328501
 H         -4.3983520376        3.3866714763       -0.7115162734
 C         -2.3992608513        2.7659646235       -1.2332736226
 H         -1.4546821155        2.5834963129       -0.7140300548
 H         -2.2168480857        3.5335960718       -1.9908255699
 C         -2.8130940581        1.4840571090       -1.9679786662
 H         -2.1081733970        1.3304761123       -2.7904815869
 H         -3.8127215464        1.6086548124       -2.3908166067
 H         -4.7194504283        1.0524791571        2.0909062530
 H         -5.6625751546        2.2728259370        1.2251444695
 H         -5.7656742799       -0.0431972075        0.2413720739
 H         -5.2455543383        1.2078257840       -0.9043323204
 O         -3.6511448709       -1.2538340181        0.4775077410
 C         -2.5475250681       -2.0862970194        0.4087104209
 O         -2.6110073209       -3.0809809352        1.1608190053
 O         -0.6290244253       -0.2463697932       -2.0570841715
 C         -0.3388442296       -2.7411565949       -0.4479830257
 C          0.6390524605       -2.3774750038        0.6428370326
 C          1.2694138397       -3.3600191874        1.3979787480
 C          2.1648204339       -3.0112760311        2.3936623955
 C          2.4393779335       -1.6828518020        2.6623963986
 C          1.7986104020       -0.6903587483        1.9263152010
 C          0.9183255697       -1.0466090874        0.9150424204
 H          0.4190931475       -0.2729108424        0.3572271221
 N          2.0119566500        0.6566409637        2.2240449234
 S          1.6799785673        1.9325548042        1.2047833008
 O          2.1735422201        3.0810807511        1.9356403763
 O          0.2823271832        1.9552123291        0.8602140635
 C          2.7150792036        1.6779845802       -0.2240541053
 C          4.0642505733        1.9364464824       -0.0627341564
 C          4.9211283854        1.7430519797       -1.1322032422
 C          4.4164395484        1.2972909796       -2.3452939926
 C          3.0621092489        1.0468158527       -2.4909902965
 C          2.1968227028        1.2340700434       -1.4223578490
 H          1.1423712395        1.0275298948       -1.5226778192
 H          2.6616176649        0.7010985976       -3.4303587591
 H          5.0814079739        1.1466617872       -3.1810942484
 H          5.9749724909        1.9407544324       -1.0196787537
 H          4.4109619073        2.3020323007        0.8901603880
 H          2.7384453042        0.8584073704        2.8921962141
 H          3.1264374520       -1.4108721540        3.4488006425
 H          2.6493518694       -3.7822566196        2.9732697583
 H          1.0369078156       -4.3992037643        1.2175576184
 H         -0.7751652481       -3.7174128006       -0.1798265926
 C          0.3346401494       -2.9019995044       -1.8042450606
 C          1.6765908689       -2.3238481776       -2.1252244384
 C          1.5226004932       -3.8043755039       -1.9637078200
 H          1.5762630874       -4.4297608656       -2.8419460940
 H          1.9349689091       -4.2547673972       -1.0742926850
 H          1.8217122700       -1.9185947703       -3.1141646149
 H          2.1895901057       -1.7729251516       -1.3517787825
 H         -0.3903559540       -2.9097554768       -2.6113690572
