  62
        -98.93737813
 C         -0.9118820793       -2.1803952018       -0.5871648030
 C         -1.2577776331       -0.9862983202       -1.2635298273
 C         -2.5267637948       -0.3587285656       -0.8586361577
 C         -3.2483473751       -0.8890048878        0.1425238858
 C         -4.5500235657       -0.3661216330        0.6881075071
 C         -4.4703140013        1.0156857478        1.3659681827
 C         -4.8442021152        2.1869257664        0.4488669873
 H         -5.4734771869        1.8133977344       -0.3601194163
 H         -5.4499189959        2.8973781990        1.0152176691
 C         -3.6684525087        2.9720161672       -0.1402264880
 H         -3.2665788785        3.6401124595        0.6253607157
 H         -4.0570725017        3.5940002139       -0.9500565605
 C         -2.4994382187        2.1402415986       -0.6713303313
 H         -1.8927858808        1.7806381763        0.1637095398
 H         -1.8550423394        2.8032035837       -1.2538661168
 C         -2.9044809825        0.9287251959       -1.5343093756
 H         -3.9723144153        0.9476351527       -1.7477504052
 H         -2.3618895701        0.9545258005       -2.4817919845
 H         -3.4696136849        1.1574378662        1.7762997647
 H         -5.1660136966        1.0013981290        2.2066981129
 H         -4.8806897053       -1.1070658341        1.4188256105
 H         -5.2879242549       -0.3374845975       -0.1169159616
 O         -2.8713308069       -2.0273481960        0.7870774621
 C         -1.7009368777       -2.6824760993        0.4508418979
 O         -1.4740706244       -3.7048210538        1.1312660532
 O         -0.5645876749       -0.4497235340       -2.1658380420
 C          0.3810520902       -2.9475640195       -0.8254540914
 C          1.3985061267       -2.5126461439        0.1999434745
 C          2.1324709960       -3.4340886597        0.9353257566
 C          3.0108631751       -3.0044485227        1.9151995191
 C          3.1519360102       -1.6576137728        2.1946217377
 C          2.4222859732       -0.7259275263        1.4615895357
 C          1.5794325606       -1.1598713339        0.4514083155
 H          1.0162663027       -0.4384106505       -0.1145474663
 N          2.5412519805        0.6431220355        1.7264336350
 S          1.2831892565        1.7364736813        1.5205928378
 O          1.4585120446        2.6843508589        2.6029899816
 O          0.0003683976        1.0792356742        1.4591704678
 C          1.7075065247        2.5524455077       -0.0060528711
 C          2.6337235999        3.5763049382        0.0780956756
 C          3.0297496822        4.2277894503       -1.0773502000
 C          2.4969076711        3.8460072697       -2.2998075074
 C          1.5696724870        2.8191286390       -2.3682473308
 C          1.1681412732        2.1620334275       -1.2141885297
 H          0.4485554918        1.3599925163       -1.2659212532
 H          1.1508747927        2.5121857137       -3.3133604596
 H          2.8040024301        4.3507439896       -3.2022859761
 H          3.7505318085        5.0276540610       -1.0226008455
 H          3.0114589671        3.8486103328        1.0497273673
 H          3.0959524869        0.8715498801        2.5376400802
 H          3.8134718637       -1.3259338824        2.9805451249
 H          3.5753857666       -3.7277171009        2.4840988799
 H          1.9925094353       -4.4898284793        0.7551317707
 H          0.1402750345       -4.0034528144       -0.6190062335
 C          0.8970630921       -2.8699957542       -2.2536819765
 C          2.0776551546       -2.0440987498       -2.6568671602
 C          2.1918304055       -3.5366234036       -2.6147596414
 H          2.2504677527       -4.0798889804       -3.5456318646
 H          2.7683295960       -3.9701879161       -1.8114921906
 H          2.0354061470       -1.5498962544       -3.6150068716
 H          2.5827531054       -1.4710977747       -1.8948677056
 H          0.0926613205       -2.9440251660       -2.9775395221
