  62
        -98.94022832
 C          2.3847101001        0.2163386402       -0.6199585296
 C          1.2565182200        0.8285321302       -1.2246230396
 C          0.9644679802        2.2089587403       -0.8257368398
 C          1.7613632303        2.8110425004        0.0751238300
 C          1.5896146405        4.2150867605        0.5764672598
 C          0.7542735807        4.2596872707        1.8623424299
 C         -0.5566330994        3.4772112908        1.7787286603
 H         -0.3419088695        2.4070302308        1.7120078704
 H         -1.0874146792        3.6312815310        2.7213013503
 C         -1.4657890295        3.8798045507        0.6092396003
 H         -2.4915048095        3.9501557008        0.9773247505
 H         -1.1834272995        4.8662505406        0.2385163101
 C         -1.4772009998        2.8758934005       -0.5451830695
 H         -1.6121813498        1.8724755905       -0.1332498293
 H         -2.3406842599        3.0929408504       -1.1800166194
 C         -0.2322332999        2.8756564102       -1.4434037997
 H          0.0063344601        3.8983168602       -1.7432860399
 H         -0.4666953201        2.3001759901       -2.3433818195
 H          1.3490406208        3.8425178009        2.6782551899
 H          0.5404662708        5.3043854008        2.0970410898
 H          2.5794792905        4.6252561605        0.7852044596
 H          1.1148645204        4.8140719804       -0.1982432702
 O          2.8136057404        2.1863918104        0.6586205600
 C          3.1171085903        0.8615944904        0.3778650802
 O          4.0516380303        0.4095981704        1.0660437101
 O          0.5287335399        0.2459824301       -2.0747413293
 C          2.6544607499       -1.2439007398       -0.9678913994
 C          1.8669103101       -2.0179421796        0.0597356608
 C          2.3729762502       -2.3853553494        1.3014341708
 C          1.5305739003       -2.8900475992        2.2774083710
 C          0.1694009903       -3.0096752592        2.0500306513
 C         -0.3348492899       -2.6690520694        0.8046238713
 C          0.5148371800       -2.2137845696       -0.1875430789
 H          0.1102363399       -1.9222385997       -1.1473613489
 N         -1.7397630699       -2.6861293593        0.5871311015
 S         -2.4398811897       -1.2241568292        1.1079115814
 O         -1.4080418897       -0.2379167892        1.3332118110
 O         -3.2709036796       -1.5220828090        2.2520510115
 C         -3.4710401899       -0.7513852694       -0.2706482986
 C         -2.8619091401       -0.2934104996       -1.4243627587
 C         -3.6587006802        0.0632048102       -2.5013380587
 C         -5.0379655702       -0.0482411897       -2.4113123684
 C         -5.6321583901       -0.5139747394       -1.2482009283
 C         -4.8433669199       -0.8699511893       -0.1657372283
 H         -5.2568513698       -1.2335729491        0.7606352018
 H         -6.7046016301       -0.6001467794       -1.1809418581
 H         -5.6513093003        0.2305418502       -3.2535664684
 H         -3.1921820503        0.4249339501       -3.4037545688
 H         -1.7858379501       -0.2063999597       -1.4716955989
 H         -1.9481554301       -2.7921998695       -0.3981280384
 H         -0.5070806096       -3.3370420290        2.8239012214
 H          1.9346841205       -3.1597522391        3.2418896810
 H          3.4179569903       -2.2279411295        1.5171810006
 H          2.1835494998       -1.4055686900       -1.9469449193
 C          4.1136213399       -1.6203305099       -1.0671314596
 C          4.4758662397       -2.9209996001       -1.7184911994
 C          4.7751879997       -1.6271192402       -2.4118263297
 H          5.8023268297       -1.3020195803       -2.4793201699
 H          4.1751784596       -1.3562308603       -3.2682629696
 H          5.2975136498       -3.4889911500       -1.3105114094
 H          3.6695148196       -3.5276920101       -2.1023015992
 H          4.7098366701       -1.2912796598       -0.2271519197
