  62
        -98.93596069
 C         -2.2956177400       -1.2781327821        0.1851388371
 C         -3.2187202376       -0.5997448806        1.0177305085
 C         -4.0279526879        0.4619289922        0.3949956831
 C         -3.8193349156        0.7761717280       -0.8969458456
 C         -4.5085213295        1.7751258234       -1.8027730092
 C         -5.3893659631        2.8784325541       -1.2218585770
 C         -4.6438359164        3.9247236798       -0.3943520575
 H         -4.0063868575        4.5086066523       -1.0633034427
 H         -5.3803305117        4.6039517836        0.0404068769
 C         -3.7574499306        3.3751234767        0.7207471742
 H         -3.2946453621        4.2255450564        1.2293431031
 H         -2.9471282613        2.7841989781        0.2870819055
 C         -4.4776842658        2.5372177938        1.7759161450
 H         -5.3152832136        3.1047516956        2.1855836295
 H         -3.7693437848        2.3532023754        2.5882981951
 C         -4.9970806251        1.1697916707        1.2975931543
 H         -5.1211759629        0.5309287352        2.1767896681
 H         -5.9692545806        1.2606964404        0.8191168705
 H         -6.2027390319        2.4475917578       -0.6455095720
 H         -5.8422706709        3.3937846459       -2.0731624770
 H         -5.1125284305        1.1798215158       -2.4966316417
 H         -3.7120767620        2.2295848045       -2.4009876889
 O         -2.8822152767        0.1287869214       -1.6485001915
 C         -2.0933352286       -0.8946243722       -1.1406093174
 O         -1.2783868398       -1.3531326338       -1.9614009571
 O         -3.3642945452       -0.8696235277        2.2403953170
 C         -1.4465990042       -2.3697845618        0.8127372268
 C          0.0064652911       -2.1349396639        0.4840304304
 C          0.8042618962       -3.0420853505       -0.1990365249
 C          2.1227986802       -2.7344065557       -0.4872285402
 C          2.6739624892       -1.5272153634       -0.0997910139
 C          1.8834231500       -0.6103006169        0.5810228722
 C          0.5660985707       -0.9237915092        0.8738854234
 H         -0.0525967639       -0.2048178248        1.3986803898
 N          2.4344179856        0.6187920167        0.9881779819
 S          3.2485194373        1.5385075610       -0.1583124176
 O          3.1656909189        2.8989262744        0.3295887944
 O          2.7470004030        1.3035576119       -1.4923779730
 C          4.9339742526        0.9796767237       -0.0260157619
 C          5.6021663824        0.5372130221       -1.1507116725
 C          6.9168505257        0.1150850663       -1.0261939723
 C          7.5362779892        0.1436626766        0.2138472967
 C          6.8517128952        0.5932478789        1.3333136043
 C          5.5379855834        1.0178316708        1.2155971006
 H          4.9720089609        1.3773273616        2.0585802192
 H          7.3367517831        0.6138687322        2.2958824906
 H          8.5586642345       -0.1865329537        0.3082804724
 H          7.4500917852       -0.2345158463       -1.8956197483
 H          5.0765176872        0.5266497621       -2.0924540978
 H          1.7862735224        1.1986372603        1.5020813550
 H          3.6976246434       -1.2821281480       -0.3313681174
 H          2.7296119632       -3.4450213776       -1.0274118323
 H          0.3865213163       -3.9777824224       -0.5318294379
 H         -1.5744360852       -2.2197913416        1.8982566381
 C         -1.9170893151       -3.7854585056        0.5178931913
 C         -3.3597316780       -4.0733671823        0.2312643398
 C         -2.3354983475       -4.2292141875       -0.8505629324
 H         -2.0740445368       -5.2289094822       -1.1657285232
 H         -2.3051974151       -3.4997485166       -1.6443325018
 H         -3.8005404566       -4.9620874162        0.6572561440
 H         -4.0362966375       -3.2326809774        0.1769570442
 H         -1.3953751167       -4.5172458677        1.1270549503
