  62
        -98.93554121
 C         -1.9924380387       -1.5208537991        0.1025178065
 C         -2.3240475485       -0.5525940011       -0.8732050756
 C         -3.6676681746        0.0612076970       -0.7774631013
 C         -4.4861445593       -0.3059212373        0.2248283127
 C         -5.8652269626        0.2056740462        0.5473805216
 C         -5.8456837498        1.5967656147        1.1997202389
 C         -4.9118030601        2.6038325656        0.5341103711
 H         -4.9168751538        3.5130765471        1.1412184812
 H         -3.8929905719        2.2120409741        0.5492903880
 C         -5.2870581650        2.9930535533       -0.8939575058
 H         -6.2987942667        3.4046054831       -0.8989470114
 H         -4.6043265106        3.7892648832       -1.2021068315
 C         -5.2101337985        1.8741653276       -1.9356022081
 H         -6.0772254289        1.2216876067       -1.8784505562
 H         -5.2426908891        2.3463586999       -2.9219206690
 C         -3.9275902474        1.0500316942       -1.8891560938
 H         -3.8508247362        0.4727310536       -2.8184936995
 H         -3.0667074455        1.7284716221       -1.9018541183
 H         -5.5237146887        1.4795426536        2.2374585530
 H         -6.8640056467        1.9892623965        1.2050647924
 H         -6.4835388705        0.2062650409       -0.3453275181
 H         -6.3027372406       -0.5028323901        1.2543318363
 O         -4.1161270133       -1.2300193556        1.1572477643
 C         -2.8890584877       -1.8574146332        1.1205416298
 O         -2.7115835714       -2.6919658326        2.0307570074
 H          0.0847766381        0.2768642084       -0.3569773037
 C          0.6662310204       -0.1674675252        0.4371839182
 C          0.4065082709       -1.4774806114        0.8167002045
 C          1.1724681632       -2.0399337687        1.8308111014
 C          2.1662072713       -1.3045944304        2.4542003530
 C          2.4193993253        0.0015323795        2.0761259284
 C          1.6623360180        0.5708097989        1.0596802893
 N          1.9206960565        1.8924457153        0.6547814088
 S          3.5185200472        2.3080042421        0.3753760473
 O          4.1646086604        2.6017738345        1.6306018091
 O          3.4722194951        3.3923778964       -0.5795390542
 C          4.2500648753        0.8541983264       -0.3553631287
 C          5.2393242852        0.1658019228        0.3167682201
 C          5.7559389197       -0.9883302624       -0.2501672146
 C          5.2741940335       -1.4333121584       -1.4712860125
 C          4.2841162773       -0.7273443444       -2.1374260438
 C          3.7638543428        0.4271840760       -1.5753602445
 H          2.9939551846        0.9993733600       -2.0690681262
 H          3.9085907708       -1.0757068242       -3.0860813017
 H          5.6707271361       -2.3356933340       -1.9087974447
 H          6.5277183311       -1.5379747716        0.2640076030
 H          5.5836441447        0.5462414102        1.2644987340
 H          1.3258423543        2.2048177939       -0.0989247101
 H          3.1827471462        0.5921494179        2.5560973728
 H          2.7490947198       -1.7520817501        3.2444647795
 H          0.9744145361       -3.0558368964        2.1396957114
 C         -0.6707061775       -2.2728959735        0.1255100168
 H         -0.8662365723       -3.1656505773        0.7398446305
 C         -0.2514081895       -2.7626021159       -1.2556719340
 C          0.9046336279       -2.2059548092       -2.0250765126
 C          1.0025820583       -3.5704266506       -1.4169011682
 H          0.9814740107       -4.4337258282       -2.0643581124
 H          1.6334421509       -3.6818510241       -0.5479847121
 H          0.7915480362       -2.1162031568       -3.0946682258
 H          1.4805012160       -1.4105032795       -1.5796473753
 H         -1.1092732034       -3.0760637134       -1.8426303550
 O         -1.5500612632       -0.1857174757       -1.7964667694
