  62
        -98.94469532
 C         -2.5650886519       -0.1985800523       -0.3444286726
 C         -2.1287811103       -0.7329452517        0.8926164358
 C         -1.6400270292       -2.1186990514        0.8540331784
 C         -1.6194023403       -2.7788097172       -0.3176895335
 C         -1.1313094024       -4.1861844713       -0.5057342252
 C          0.3550319009       -4.2269003263       -0.8826651785
 C          1.2529944181       -3.3972883592        0.0355341322
 H          1.0396951191       -2.3351905397       -0.1098962489
 H          2.2839411511       -3.5566467690       -0.2907333184
 C          1.1305771484       -3.7361857434        1.5276984678
 H          2.1341565505       -3.7757874577        1.9562055833
 H          0.6838732111       -4.7243403431        1.6496885275
 C          0.3409355246       -2.7101495474        2.3434993963
 H          0.7029462147       -1.7067674703        2.1066728392
 H          0.5359846720       -2.8936299806        3.4037956812
 C         -1.1807283305       -2.7283531196        2.1480614881
 H         -1.6248053539       -2.1170013837        2.9391431129
 H         -1.5561146787       -3.7495801002        2.2490817724
 H          0.4663923834       -3.8445351536       -1.9003294744
 H          0.6832804124       -5.2684369967       -0.8710048895
 H         -1.7117185068       -4.6427636049       -1.3098990678
 H         -1.2984798947       -4.7454459737        0.4128968702
 O         -2.0313080286       -2.2258926030       -1.4892086350
 C         -2.4886036704       -0.9201131298       -1.5337546461
 O         -2.8057600235       -0.5234661891       -2.6764543134
 O         -2.1663708391       -0.0930050589        1.9756852238
 C         -3.0514717385        1.2377890446       -0.4232435926
 C         -1.9376519973        2.1720363438       -0.0148210612
 C         -2.1251862582        3.3022550650        0.7694056533
 C         -1.0519608442        4.1107783749        1.1077710637
 C          0.2300674219        3.8025029441        0.6906613001
 C          0.4245618779        2.6794557726       -0.1030073476
 C         -0.6531334371        1.8935589481       -0.4669445022
 H         -0.4839059430        1.0276362179       -1.0947662920
 N          1.7446531059        2.3001095548       -0.4876932010
 S          2.0384037785        0.6464758832       -0.5082175327
 O          1.7288852688        0.0647825279       -1.8014811033
 O          1.4004450190        0.0695901673        0.6453377376
 C          3.8057813264        0.6431102533       -0.2720563955
 C          4.6488664281        0.3418043056       -1.3232429020
 C          6.0192955842        0.3731044432       -1.1149762992
 C          6.5198947619        0.7059952893        0.1341711947
 C          5.6604230872        1.0052926687        1.1812112820
 C          4.2903620086        0.9747382363        0.9787522784
 H          3.5823187791        1.1914603187        1.7617960697
 H          6.0527857807        1.2614570729        2.1521479235
 H          7.5863073878        0.7303366670        0.2937798778
 H          6.6889837232        0.1377465450       -1.9265035916
 H          4.2138128740        0.0818349662       -2.2750834096
 H          2.0675871054        2.7410137100       -1.3373185852
 H          1.0739612389        4.4112458741        0.9715143131
 H         -1.2169825101        4.9839138607        1.7204705745
 H         -3.1136450366        3.5467238231        1.1234836139
 H         -3.2744584874        1.4224540408       -1.4855222979
 C         -4.3208316850        1.4223486224        0.3818343834
 C         -5.3432425128        2.4333511921       -0.0404387425
 C         -5.6211118993        0.9708342380       -0.2099815457
 H         -6.3468219762        0.5020186062        0.4372070007
 H         -5.5915689367        0.5540107883       -1.2065973435
 H         -5.8845110463        2.9693325242        0.7244633793
 H         -5.1368923158        3.0136543801       -0.9271387761
 H         -4.1671889299        1.2548036829        1.4413894962
