  62
        -98.94628087
 C         -1.5387756185       -1.4656633217       -0.0794798746
 C         -1.5106867881       -0.1055417510        0.3143050452
 C         -2.8043328008        0.4657535001        0.7097863669
 C         -3.9048174782       -0.3077960291        0.7148128997
 C         -5.2897534700        0.1283937897        1.1101896288
 C         -6.0716684526        0.8189475844       -0.0158610964
 C         -5.6015645855        2.2318262953       -0.3647761190
 H         -6.3673934562        2.6742029149       -1.0051775998
 H         -5.5524065111        2.8315078879        0.5445639339
 C         -4.2530646627        2.2882279605       -1.0963631121
 H         -4.0164504931        1.3004809165       -1.4986552681
 H         -4.3296580053        2.9695729342       -1.9468105815
 C         -3.0828829849        2.7649409942       -0.2356139443
 H         -2.1737423409        2.7183000300       -0.8396725744
 H         -3.2452931393        3.8044726538        0.0574815977
 C         -2.8499491994        1.9292289080        1.0294677597
 H         -3.6251134178        2.1358828801        1.7668881886
 H         -1.8791019179        2.2032514574        1.4494003343
 H         -6.0282839564        0.1896234093       -0.9078862140
 H         -7.1161127074        0.8743250195        0.2999745710
 H         -5.2327359044        0.7909584657        1.9742970747
 H         -5.8302844990       -0.7752859854        1.4001353891
 O         -3.8790614547       -1.6236909953        0.3689943463
 C         -2.7049305887       -2.2282732751       -0.0538318113
 O         -2.8268871520       -3.4316987922       -0.3626437459
 O         -0.4666106751        0.5927277573        0.3369912302
 C         -0.2563367332       -2.1273688596       -0.5507705433
 C          0.8151078795       -1.9499052824        0.4963401621
 C          0.5495589191       -2.3511108502        1.8036404821
 C          1.4882984364       -2.1744462222        2.8007893243
 C          2.7069732413       -1.5806051026        2.5203802018
 C          2.9860098171       -1.1888204171        1.2172642365
 C          2.0498202881       -1.3904241239        0.2118922761
 H          2.3031175725       -1.0967565749       -0.7919317042
 N          4.2149709031       -0.5978464441        0.8973285647
 S          4.3427063671        0.5151457424       -0.3395605976
 O          4.3255744767       -0.1585112409       -1.6147722712
 O          5.5616863192        1.2358586585       -0.0339553728
 C          2.9508335346        1.6218848297       -0.2072388003
 C          2.7087200515        2.2421398068        1.0011351692
 C          1.6538674718        3.1335854182        1.0955987848
 C          0.8664799879        3.3932858959       -0.0141177602
 C          1.1247160151        2.7650677782       -1.2206706236
 C          2.1753789466        1.8689882696       -1.3201356078
 H          2.4046952288        1.3516808818       -2.2389240518
 H          0.5052616629        2.9616629323       -2.0819883461
 H          0.0405658207        4.0830920113        0.0636924171
 H          1.4436895770        3.6182727127        2.0358292726
 H          3.3402192478        2.0252447966        1.8477363007
 H          4.8010752271       -0.3628948424        1.6840624273
 H          3.4355770014       -1.4259888765        3.3014016750
 H          1.2665617819       -2.4892798013        3.8095206728
 H         -0.4108653287       -2.7964611625        2.0268861996
 H         -0.4763230268       -3.2001454081       -0.6497511104
 C          0.1342467636       -1.5774868322       -1.9068857565
 C          0.9762526049       -2.3930202091       -2.8399322789
 C         -0.4738878011       -2.1653330053       -3.1428428813
 H         -0.7348993906       -1.5035443816       -3.9551002696
 H         -1.1599299547       -2.9901303064       -3.0144332202
 H          1.7190565512       -1.8889410462       -3.4403943975
 H          1.2768169504       -3.3762641121       -2.5104501090
 H          0.2880257418       -0.5039445983       -1.8887240761
