  62
        -98.94452437
 C          1.2841559853        1.7546477991       -0.6817587840
 C          2.4785379858        1.6411138200        0.0764397285
 C          3.4148628618        0.5903382464       -0.3304921708
 C          3.1334653380       -0.1697842556       -1.4036746695
 C          3.9672810963       -1.3056263955       -1.9293383367
 C          3.6868476634       -2.6357366098       -1.2158584123
 C          4.2530534767       -2.7408700924        0.2009826776
 H          4.1918012184       -3.7915326382        0.4918886960
 H          5.3082002904       -2.4638156917        0.1934715657
 C          3.5031318037       -1.8996690257        1.2438375376
 H          2.5173990730       -1.6314407527        0.8533177682
 H          3.3298388183       -2.5024277748        2.1389328773
 C          4.2375303519       -0.6333865667        1.6879323954
 H          3.5936093753       -0.0954538542        2.3887591973
 H          5.1539193940       -0.9100484367        2.2146660381
 C          4.6001926513        0.3270152866        0.5474212045
 H          4.9086854572        1.2789674569        0.9866918004
 H          5.4274551919       -0.0753842366       -0.0366181102
 H          2.6052208557       -2.7940310111       -1.1834312751
 H          4.1243012769       -3.4332722814       -1.8214399640
 H          3.7137118327       -1.4196668128       -2.9855037889
 H          5.0264281127       -1.0598199120       -1.8482499452
 O          2.0216447603        0.0217215752       -2.1553619874
 C          1.0335690953        0.9271532737       -1.7769848839
 O          0.0296728153        0.8913413872       -2.5123321996
 O          2.7392505111        2.3837387194        1.0615688218
 C          0.2455261503        2.7147324443       -0.1277442593
 C         -0.4589374040        2.0560970246        1.0358913671
 C         -0.8117207486        2.7674569132        2.1763786941
 C         -1.4301327945        2.1264274691        3.2361200552
 C         -1.6928132114        0.7692012780        3.1883009656
 C         -1.3278958872        0.0443490842        2.0576270814
 C         -0.7374594948        0.6985061052        0.9876485437
 H         -0.4475753046        0.1287965492        0.1207987411
 N         -1.5139331953       -1.3383891662        2.0033875123
 S         -1.5063490934       -2.2431265668        0.6045233170
 O         -1.8627358065       -3.5699267959        1.0616850473
 O         -0.2402637222       -2.1280767696       -0.0738337908
 C         -2.8510994602       -1.5971684046       -0.3723128663
 C         -4.1286677049       -1.8788917064        0.0768715833
 C         -5.2153159880       -1.3916650512       -0.6283319619
 C         -5.0088202582       -0.6326975998       -1.7712766949
 C         -3.7231961888       -0.3633401287       -2.2105072155
 C         -2.6286152728       -0.8451592968       -1.5065810513
 H         -1.6231278251       -0.6292534643       -1.8341725056
 H         -3.5522449085        0.2246318013       -3.0979043624
 H         -5.8530525089       -0.2512589185       -2.3236083269
 H         -6.2161202720       -1.6041265664       -0.2884835505
 H         -4.2449644192       -2.4894692374        0.9574527815
 H         -2.0448609415       -1.7541406259        2.7516635474
 H         -2.1541602403        0.2676079238        4.0247995544
 H         -1.6996898800        2.6881059236        4.1175915081
 H         -0.5752354030        3.8191087787        2.2422348895
 H          0.8179729517        3.5646779010        0.2786019311
 C         -0.7199372757        3.2640632109       -1.1651692984
 C         -2.1317749730        2.7851951655       -1.2937550850
 C         -1.8553808527        4.1547753598       -0.7550564410
 H         -2.0846528018        5.0092151645       -1.3734434516
 H         -2.0126995192        4.3162598657        0.2999431074
 H         -2.5362804773        2.6858659552       -2.2885755088
 H         -2.4723341004        2.0224218303       -0.6099795652
 H         -0.2137964233        3.5169219603       -2.0905860901
