  62
        -98.94031422
 C         -1.6481783713       -1.4621468001       -0.0354474823
 C         -2.7729513571       -0.8365772502        0.5507844519
 C         -3.2503786890        0.4151887031       -0.0664040977
 C         -2.5866696336        0.9037479373       -1.1302124467
 C         -2.8493588522        2.1770706118       -1.8888468747
 C         -2.3358401352        3.4158534685       -1.1380700657
 C         -2.6597094019        3.4413880032        0.3533323892
 H         -2.1577571864        4.3119905034        0.7850598382
 H         -2.2181606543        2.5607568523        0.8252452305
 C         -4.1437098508        3.5351771076        0.7022515812
 H         -4.5534922573        4.4496040995        0.2670072470
 H         -4.2132656179        3.6248716454        1.7894669339
 C         -5.0180339686        2.3573317305        0.2661666206
 H         -5.2392148764        2.4064260859       -0.7966129420
 H         -5.9749645871        2.4542600663        0.7875198621
 C         -4.4652896851        0.9823338148        0.6275265863
 H         -5.2609214776        0.2394872813        0.4901579474
 H         -4.2335594133        0.9611195733        1.6987828594
 H         -2.7415236483        4.3075915350       -1.6196600417
 H         -1.2468684566        3.4401016433       -1.2315379766
 H         -3.9074191314        2.2696975540       -2.1151446634
 H         -2.3096609963        2.0970229724       -2.8351488364
 O         -1.4969732917        0.2781720152       -1.6532527052
 C         -0.9767388545       -0.8801673510       -1.1099871321
 O          0.0568519913       -1.2842474779       -1.6775783562
 O         -3.3567251089       -1.2984017759        1.5703378552
 C         -1.0873980781       -2.7024950811        0.6386945925
 C          0.3952792067       -2.5171769940        0.8462471248
 C          1.3640724446       -3.4312777946        0.4547164599
 C          2.7073950769       -3.1551721198        0.6486995164
 C          3.1130038289       -1.9560866056        1.2047517405
 C          2.1493352516       -1.0354652378        1.6004199497
 C          0.8071995614       -1.3365713706        1.4533652376
 H          0.0706801202       -0.6109206751        1.7681195418
 N          2.4960906126        0.2257741266        2.1329183582
 S          2.1079960966        1.5550803175        1.1829496960
 O          2.5450580362        2.7056143891        1.9458770789
 O          0.7138625173        1.5166487366        0.8285681259
 C          3.1517351718        1.3772395949       -0.2535209865
 C          2.7943947520        0.4891503206       -1.2480967342
 C          3.6606477931        0.3055913705       -2.3160862184
 C          4.8572182155        1.0029616982       -2.3705628448
 C          5.2000651916        1.8912990042       -1.3619089736
 C          4.3432568584        2.0771757933       -0.2897499430
 H          4.5643554916        2.7577845466        0.5167085743
 H          6.1299726759        2.4349942558       -1.4064165180
 H          5.5249041062        0.8532964557       -3.2043756847
 H          3.3864048974       -0.3871004582       -3.0955668752
 H          1.8560722397       -0.0417658670       -1.1925384414
 H          3.4662543393        0.2963223507        2.4102075654
 H          4.1614669059       -1.7274864746        1.3245965977
 H          3.4493359591       -3.8748853724        0.3381764433
 H          1.0712576179       -4.3512099358       -0.0240133676
 H         -1.5700516789       -2.7126321461        1.6311558641
 C         -1.4531895185       -4.0160819997       -0.0345770089
 C         -2.6688442275       -4.1251907481       -0.9043846160
 C         -1.3028961936       -4.2261504240       -1.5104675662
 H         -0.9694322219       -5.1926461870       -1.8589720800
 H         -0.9362873604       -3.3976822738       -2.0952740297
 H         -3.2712791139       -5.0184519390       -0.8335261870
 H         -3.2406555141       -3.2250945248       -1.0791508661
 H         -1.2454999258       -4.8701305898        0.6028294376
