  62
        -98.94447596
 C          1.7547152947        0.7345270979        0.0590644644
 C          2.9465336021        1.2130320865        0.6547599884
 C          4.1877977728        0.9105743629       -0.0658635041
 C          4.1364172401        0.2339963588       -1.2277806603
 C          5.3141698517       -0.1344450079       -2.0889293158
 C          6.0253039732       -1.4232949441       -1.6539993682
 C          6.8541314035       -1.3090585127       -0.3738870437
 H          7.4653932620       -2.2112511414       -0.3068582884
 H          7.5341696406       -0.4607716492       -0.4574699447
 C          6.0221843919       -1.1803346616        0.9097859950
 H          4.9944751604       -1.4929253143        0.7097359144
 H          6.4192706197       -1.8563588879        1.6704406364
 C          6.0045600973        0.2233192053        1.5152420802
 H          7.0114474100        0.4949348740        1.8396958913
 H          5.3593641633        0.2081669189        2.3973445544
 C          5.4855218503        1.3128025685        0.5676636978
 H          5.3034755130        2.2176609585        1.1525133713
 H          6.2304398235        1.5333899992       -0.1963752126
 H          6.6918796586       -1.7179764124       -2.4678494102
 H          5.2775975082       -2.2112085031       -1.5358418318
 H          6.0286699138        0.6889623612       -2.1059836017
 H          4.9261378356       -0.2799924997       -3.0993859763
 O          2.9676907103       -0.1903540188       -1.7789374567
 C          1.7524530199        0.0283276301       -1.1434879878
 O          0.7680990545       -0.4404936336       -1.7460435293
 O          2.9707730528        1.8583950394        1.7367229918
 C          0.4339860516        0.9889321668        0.7622352314
 C         -0.2369501294       -0.3187538085        1.1016261817
 C          0.4939278031       -1.2862692723        1.7878053836
 C         -0.0786214286       -2.4952335345        2.1289139991
 C         -1.3937557983       -2.7667177541        1.7930629045
 C         -2.1360360976       -1.8066380643        1.1176095081
 C         -1.5586170918       -0.5882760272        0.7832391859
 H         -2.1503216622        0.1400948695        0.2556216964
 N         -3.4856405277       -2.0344165989        0.8118144574
 S         -4.1325066215       -1.5400062623       -0.6515862252
 O         -5.3535326900       -2.3107785183       -0.7705731453
 O         -3.1925322987       -1.6740611215       -1.7383730338
 C         -4.5664742656        0.1680849870       -0.4019554439
 C         -4.2391849104        1.0961654569       -1.3702211442
 C         -4.6243521301        2.4159209150       -1.1909940055
 C         -5.3258845787        2.7814970482       -0.0519722773
 C         -5.6450361969        1.8366928337        0.9117061720
 C         -5.2672179345        0.5151782142        0.7364001546
 H         -5.5014638986       -0.2478016561        1.4595010806
 H         -6.1877651383        2.1265214660        1.7968547764
 H         -5.6217188427        3.8096718466        0.0851291128
 H         -4.3742728731        3.1512338671       -1.9396027238
 H         -3.6801003148        0.7692828143       -2.2332243060
 H         -3.8281461344       -2.9485354470        1.0705826212
 H         -1.8416699033       -3.7140843621        2.0524145524
 H          0.5028420340       -3.2366261771        2.6562876299
 H          1.5227472769       -1.0754961184        2.0468915674
 H          0.7037570740        1.4859972415        1.7064954596
 C         -0.4353852279        1.9282737637       -0.0456830023
 C         -1.4173320519        2.8206052586        0.6514312322
 C         -0.1793178892        3.4021493636        0.0397169090
 H         -0.2736445711        3.9933686374       -0.8586168174
 H          0.6141566580        3.7290041286        0.6958053548
 H         -2.3668131747        3.0139736686        0.1761285504
 H         -1.4673661225        2.7573745089        1.7277660018
 H         -0.7037998231        1.5209889898       -1.0146701007
