  62
        -98.93396356
 C         -2.7158013304       -0.4526669831       -0.0483877610
 C         -2.1371399547        0.4030103766       -1.0181494053
 C         -2.2640359857        1.8534265849       -0.7695896313
 C         -2.9693430618        2.2794452385        0.2926515576
 C         -3.1486076365        3.7056459253        0.7303037014
 C         -1.9302213410        4.2263263922        1.5261671564
 C         -0.5924438334        3.5757980129        1.1675444577
 H          0.1280880891        3.8363836094        1.9474107812
 H         -0.6988420933        2.4888464116        1.1919307891
 C          0.0113184467        3.9909654998       -0.1766420912
 H          0.8000252181        3.2732576899       -0.4170951655
 H          0.4691042098        4.9776801940       -0.0659104206
 C         -0.9600232916        4.0655719170       -1.3520069239
 H         -1.7338035577        4.8005429995       -1.1426227173
 H         -0.4004013726        4.4339128846       -2.2173191282
 C         -1.5734789163        2.7317600521       -1.7809664068
 H         -2.2826790979        2.9207496314       -2.5969156724
 H         -0.7810311857        2.1034456693       -2.2030623572
 H         -1.8557096943        5.3068156305        1.3981973793
 H         -2.1119257576        4.0234999166        2.5834527832
 H         -4.0299924227        3.7379748920        1.3733966147
 H         -3.3477655554        4.3211694188       -0.1434334931
 O         -3.5725259702        1.4249547029        1.1626769429
 C         -3.4340314636        0.0569125437        1.0360113260
 O         -4.0045042001       -0.5993722995        1.9324409164
 O         -1.5292014608        0.0026813373       -2.0471795271
 C         -2.5745384662       -1.9639968865       -0.0670746607
 C         -1.2855832434       -2.4133456083        0.5862018859
 C         -1.2508138403       -3.5896711587        1.3275191574
 C         -0.0727434251       -4.0205495896        1.9094448835
 C          1.0912929990       -3.2878452472        1.7665492401
 C          1.0659493661       -2.1028941729        1.0384463215
 C         -0.1169640626       -1.6795572557        0.4493618502
 H         -0.1122902967       -0.7679794261       -0.1264466192
 N          2.2200930940       -1.3118268349        0.9317472669
 S          2.4395890404       -0.3078519350       -0.4081265701
 O          1.6561540684        0.8863147405       -0.2322292045
 O          2.2432576347       -1.0578019047       -1.6281926070
 C          4.1693521420        0.0808285605       -0.2100876881
 C          4.5285171915        1.1380980463        0.6039252776
 C          5.8736614512        1.4215981509        0.7803354275
 C          6.8322653361        0.6467320348        0.1445022598
 C          6.4570621086       -0.4099918981       -0.6715161087
 C          5.1134950695       -0.6985272489       -0.8517038386
 H          4.7743461091       -1.5017028228       -1.4861383416
 H          7.2041860141       -1.0081552260       -1.1677408253
 H          7.8783266119        0.8698197930        0.2828839031
 H          6.1685170621        2.2449160983        1.4107060517
 H          3.7475612184        1.7164950044        1.0698256607
 H          3.0663238799       -1.8120419540        1.1668642183
 H          2.0104216235       -3.6207510155        2.2238674756
 H         -0.0596067008       -4.9360801555        2.4808911028
 H         -2.1579326966       -4.1612524043        1.4533902889
 H         -3.4050965087       -2.3486827718        0.5423533304
 C         -2.6782237149       -2.5755912981       -1.4520841151
 C         -3.2399561688       -3.9548880628       -1.6133391687
 C         -4.0280194724       -2.7659661400       -2.0729743604
 H         -4.1352679781       -2.5873934499       -3.1321174504
 H         -4.8882865097       -2.4684976534       -1.4906087995
 H         -2.8027273324       -4.6015348545       -2.3584746414
 H         -3.5791679338       -4.4693798894       -0.7273328836
 H         -1.8673766535       -2.2808721193       -2.1063715579
