  62
        -98.94387164
 C          1.8084134236        1.1638025176        0.3407419568
 C          2.0435780594        0.1997085407       -0.6686399478
 C          3.4479641799        0.0247968960       -1.0694912164
 C          4.3991398306        0.7811414296       -0.4918027493
 C          5.8701915783        0.6685048769       -0.7671177475
 C          6.5415308324       -0.3166525710        0.1999841246
 C          5.8180677713       -1.6584111372        0.3153075838
 H          4.8401198955       -1.4993033384        0.7755771788
 H          6.3970901000       -2.2827861334        0.9991712495
 C          5.6332439976       -2.3964737460       -1.0179068337
 H          5.8895500218       -3.4483074105       -0.8746058885
 H          6.3206968776       -1.9943449668       -1.7629686997
 C          4.2075983686       -2.3578728036       -1.5720348781
 H          3.5026981039       -2.6722228376       -0.7976401943
 H          4.1396496183       -3.0830422925       -2.3875665547
 C          3.7418448989       -1.0045579100       -2.1240998864
 H          2.7976181434       -1.1697013805       -2.6518404386
 H          4.4746088214       -0.6271079125       -2.8404095821
 H          6.5750787338        0.1402607240        1.1916684105
 H          7.5677293407       -0.4823196353       -0.1327979945
 H          6.3206151655        1.6540890727       -0.6383900914
 H          6.0182504706        0.3432202704       -1.7949040029
 O          4.1301007117        1.7129895715        0.4579840750
 C          2.8358828396        1.9179031136        0.9074656598
 O          2.7311891814        2.7829592142        1.8003179798
 O          1.1315758185       -0.4801104128       -1.2080781077
 C          0.3964860586        1.4092806409        0.8416830839
 C         -0.2024342465        0.1271161995        1.3662213342
 C          0.5285836886       -0.6267918641        2.2815056302
 C          0.0160217361       -1.7982849226        2.8021849368
 C         -1.2376157847       -2.2442903903        2.4209909454
 C         -1.9801229298       -1.4969216374        1.5158817143
 C         -1.4645994685       -0.3141987698        1.0011789171
 H         -2.0559870175        0.2488468578        0.2994270034
 N         -3.2733117963       -1.8991692874        1.1503219220
 S         -3.7922035307       -1.7770392416       -0.4381168512
 O         -4.9355061592       -2.6646452260       -0.5005472648
 O         -2.7330048508       -2.0443040411       -1.3809570266
 C         -4.3709855224       -0.1018515516       -0.6013499577
 C         -3.9953064825        0.6390310446       -1.7040401918
 C         -4.4931131716        1.9249352968       -1.8485647249
 C         -5.3529421289        2.4437207490       -0.8921797970
 C         -5.7190572077        1.6862335458        0.2102864860
 C         -5.2289000582        0.3987300399        0.3581458322
 H         -5.4952122952       -0.2223283799        1.1967442210
 H         -6.3855799502        2.0950446492        0.9523668207
 H         -5.7366674410        3.4452673014       -1.0068728107
 H         -4.2076589780        2.5148369835       -2.7053956897
 H         -3.3139202692        0.1997311776       -2.4158895688
 H         -3.5730419863       -2.7717500465        1.5612411212
 H         -1.6378370941       -3.1633957696        2.8216847124
 H          0.5973478973       -2.3736271843        3.5072204608
 H          1.5099704254       -0.2793265295        2.5761919067
 H          0.4958499700        2.1055250414        1.6877721901
 C         -0.4383779051        2.0731698181       -0.2331824252
 C         -1.5523021938        2.9985023863        0.1520357385
 C         -0.2942527743        3.5488411205       -0.4477836811
 H         -0.3247565030        3.9274317763       -1.4583276486
 H          0.3956722077        4.0761935289        0.1951224951
 H         -2.4513653731        3.0015181900       -0.4451465061
 H         -1.7217458512        3.1595737506        1.2058328058
 H         -0.5648586248        1.4483507353       -1.1105138151
