  62
        -98.94468461
 C         -2.0653086889       -0.3836977881       -0.1552974115
 C         -3.0585435147       -0.8356273514        0.7501956697
 C         -4.2427334312        0.0202431432        0.8931295258
 C         -4.3029553250        1.1769092886        0.2084662257
 C         -5.4679561538        2.1227065575        0.2240214871
 C         -6.4637866454        1.7955986555       -0.8976141511
 C         -6.8542583452        0.3191401014       -0.9659219905
 H         -7.5830983805        0.2128610661       -1.7723327697
 H         -5.9772511145       -0.2688491305       -1.2459721818
 C         -7.4456295467       -0.2420027341        0.3347845288
 H         -8.3269471174       -0.8384700174        0.0896769298
 H         -7.7769020349        0.5767453304        0.9745567207
 C         -6.4987885562       -1.1494000514        1.1225120786
 H         -7.0809770998       -1.6590848956        1.8948086394
 H         -6.0919508594       -1.9171497908        0.4596278105
 C         -5.3283142619       -0.4465262486        1.8217512133
 H         -5.7038917126        0.3833568639        2.4238513399
 H         -4.8576412080       -1.1716356527        2.4920290320
 H         -6.0132307440        2.0753022466       -1.8527847887
 H         -7.3582275244        2.4043451143       -0.7531596258
 H         -5.9627562923        2.0656796215        1.1916505951
 H         -5.0900551167        3.1361973264        0.0787160411
 O         -3.3158454306        1.5962372054       -0.6219634692
 C         -2.1786296358        0.8290306924       -0.8351921639
 O         -1.3736390195        1.3351500656       -1.6402046080
 H          1.0563714808        0.4034747134       -1.4697524354
 C          1.2056558084        0.2652227200       -0.4108480752
 C          0.3426997569       -0.5481572332        0.3074791016
 C          0.5435891974       -0.6874922105        1.6781163053
 C          1.5745720803       -0.0207857780        2.3132345230
 C          2.4246369427        0.8031251691        1.5963888784
 C          2.2308482783        0.9501409852        0.2292248277
 N          3.0828798826        1.7914157506       -0.5034647348
 S          4.7268173909        1.7079550752       -0.2209464655
 O          5.0571082255        2.4547807184        0.9678137813
 O          5.3472987064        2.1643181656       -1.4448172341
 C          5.0651615368       -0.0241906347        0.0424154752
 C          5.5480310643       -0.4570889775        1.2602867390
 C          5.7723890423       -1.8115717219        1.4492954216
 C          5.5080443955       -2.7048763212        0.4231367010
 C          5.0261958606       -2.2539142719       -0.7964435739
 C          4.8004269610       -0.9012469911       -0.9909229893
 H          4.4319463717       -0.5169252451       -1.9284217610
 H          4.8229803214       -2.9507373781       -1.5936947738
 H          5.6793459909       -3.7591937761        0.5727644989
 H          6.1489944425       -2.1648401226        2.3956747528
 H          5.7396638552        0.2714125786        2.0311638799
 H          2.8667092027        1.8428662162       -1.4874151574
 H          3.2217075333        1.3469965975        2.0767735121
 H          1.7164785902       -0.1379766591        3.3767762455
 H         -0.1310151536       -1.3164466863        2.2417624383
 C         -0.8273289274       -1.2472001300       -0.3389411479
 H         -1.0301637967       -2.1635742807        0.2313288488
 C         -0.5960983113       -1.6190113573       -1.7884494586
 C          0.3430159184       -2.7404430869       -2.1146885152
 C         -1.1327656445       -2.9198981977       -2.3026099716
 H         -1.5264977663       -2.9526266433       -3.3075872329
 H         -1.6644046169       -3.5516318266       -1.6061787064
 H          0.9645895911       -2.6540393267       -2.9926279116
 H          0.8133075273       -3.2500343860       -1.2876188557
 H         -0.6315241290       -0.7723059382       -2.4627672196
 O         -2.9591479212       -1.9073816983        1.4047803643
