  62
        -98.94172397
 C         -2.2538362794       -0.7594380904        0.0743255688
 C         -3.4277320692       -1.0330784024        0.8254891784
 C         -4.3559171695        0.0873156869        1.0226766310
 C         -4.0296662798        1.3000867181        0.5413137336
 C         -4.8947263301        2.5226850876        0.6367489865
 C         -5.8113538504        2.6546081701       -0.5874873831
 C         -6.5725755801        1.3739225107       -0.9301842258
 H         -7.2099656603        1.5948818924       -1.7890708452
 H         -5.8592467199        0.6100496816       -1.2482613676
 C         -7.4313523498        0.8197776979        0.2152302231
 H         -8.4077930898        0.5381363886       -0.1843653274
 H         -7.5988927799        1.5969147662        0.9617460048
 C         -6.8542238194       -0.4220381634        0.8973519503
 H         -6.5972323093       -1.1686067117        0.1415572786
 H         -7.6328616192       -0.8540965550        1.5314248794
 C         -5.6235699493       -0.1865219651        1.7821623906
 H         -5.8287127194        0.6186240833        2.4906518424
 H         -5.4402088190       -1.1043704563        2.3483691686
 H         -6.5205098905        3.4632562495       -0.4014591112
 H         -5.1996342306        2.9310571222       -1.4495404026
 H         -5.4907945800        2.4683005355        1.5457680564
 H         -4.2456334704        3.3984591177        0.6903061783
 O         -2.8769460100        1.5389189899       -0.1315034060
 C         -1.9627459198        0.5236966807       -0.3936785584
 O         -0.9694180800        0.9082944723       -1.0389778877
 O         -3.6852500789       -2.1658657735        1.3124376759
 C         -1.2832725191       -1.9113414798       -0.1286491639
 C          0.0995202108       -1.4928462903        0.2979665069
 C          0.4169045110       -1.4666976833        1.6527489069
 C          1.6602291710       -1.0380646839        2.0772904176
 C          2.6081390307       -0.6158616016        1.1613217884
 C          2.2931089705       -0.6184036587       -0.1904157115
 C          1.0527235306       -1.0755921781       -0.6165196624
 H          0.8130238904       -1.0624570158       -1.6683644023
 N          3.2427764803       -0.1829413864       -1.1289253007
 S          4.1430673700        1.1940443531       -0.8011587478
 O          3.4361199099        2.1265113411        0.0455461144
 O          4.5581890797        1.6861542061       -2.0972765168
 C          5.5732251703        0.5592191316        0.0532969506
 C          5.9614322303        1.1178078090        1.2552535218
 C          7.0835241605        0.6167638379        1.8970742205
 C          7.7951040007       -0.4279380807        1.3277880181
 C          7.3945044807       -0.9759375681        0.1182626869
 C          6.2745727804       -0.4787546470       -0.5286771218
 H          5.9321970404       -0.8744956350       -1.4700565426
 H          7.9502906708       -1.7883791070       -0.3214523150
 H          8.6668166209       -0.8171401616        1.8297427071
 H          7.3963125706        1.0426208959        2.8369608214
 H          5.3740971202        1.9253693480        1.6631254236
 H          2.8886762601       -0.1584540444       -2.0744662406
 H          3.5737902207       -0.2646240221        1.4861285191
 H          1.8944584011       -1.0272425561        3.1309870176
 H         -0.3298327988       -1.7770301350        2.3706832163
 H         -1.6358848188       -2.6853260014        0.5720845045
 C         -1.3148029692       -2.5398050067       -1.5138140852
 C         -2.6186246992       -2.7321707055       -2.2275836355
 C         -1.6051040496       -1.7690115040       -2.7650986435
 H         -1.0702455996       -2.0398694119       -3.6642155642
 H         -1.7981486498       -0.7112969743       -2.6781884911
 H         -2.7874704091       -3.6562027743       -2.7594397775
 H         -3.5036500793       -2.3296381067       -1.7565618844
 H         -0.5930874390       -3.3465115163       -1.6012151571
