  62
        -98.93778479
 C         -1.9775420724       -0.8683469760        0.5618324450
 C         -2.2391365244       -0.2043168761       -0.6580363646
 C         -2.5628026464        1.2302887473       -0.5686059875
 C         -2.5599775124        1.8359965747        0.6333826263
 C         -2.7825108119        3.2844770922        1.0168261778
 C         -3.4369486668        4.2601360042        0.0415663234
 C         -4.8993020692        3.9592847755       -0.2835543453
 H         -5.4980893967        4.1312784296        0.6142753234
 H         -5.2302139133        4.6679833545       -1.0458085615
 C         -5.1878982351        2.5401127152       -0.7664925911
 H         -6.2584915154        2.4703158100       -0.9769811764
 H         -4.9703718064        1.8290911178        0.0331951925
 C         -4.4374009818        2.1129769690       -2.0266833829
 H         -4.8614520061        1.1599764603       -2.3534349100
 H         -4.6050703422        2.8437826700       -2.8199582412
 C         -2.9206504666        1.9084763809       -1.8595561170
 H         -2.5774241081        1.2432258905       -2.6573179237
 H         -2.3779716882        2.8454526850       -1.9616089263
 H         -2.8512947748        4.3289450546       -0.8702845604
 H         -3.3996171683        5.2439900887        0.5172844571
 H         -3.3644989549        3.2595669333        1.9437307360
 H         -1.7924699104        3.6718321814        1.2840526300
 O         -2.2725707512        1.1562775916        1.7836848349
 C         -1.9751716287       -0.1941281719        1.7794847327
 O         -1.7373397367       -0.6734112710        2.9089686038
 H          0.5321054834       -0.7520332517        0.4286486309
 C          0.6557977785       -1.6283314930       -0.1922284223
 C         -0.3646130586       -2.5681466854       -0.2621862543
 C         -0.1783429926       -3.6914751911       -1.0579450524
 C          0.9981137195       -3.8576408303       -1.7683162736
 C          2.0085648041       -2.9171887065       -1.6994576966
 C          1.8298318373       -1.7859394962       -0.9091916701
 N          2.8171426708       -0.7882039721       -0.8586305678
 S          2.9154180235        0.2348398424        0.4747764201
 O          2.9333505753       -0.5354404282        1.6992412223
 O          1.8963070149        1.2497843740        0.3657502560
 C          4.5193157739        0.9591206264        0.1864252821
 C          4.6240120622        2.0074051619       -0.7082467755
 C          5.8735768953        2.5513254225       -0.9599638350
 C          6.9917737386        2.0403022439       -0.3176799203
 C          6.8711317702        0.9894205933        0.5790578402
 C          5.6242904648        0.4403999661        0.8347363450
 H          5.4798023410       -0.3704400285        1.5304668469
 H          7.7412964580        0.5964550053        1.0795748268
 H          7.9629211832        2.4656868476       -0.5153133138
 H          5.9702475789        3.3701845836       -1.6544275726
 H          3.7254973183        2.3754895150       -1.1757766331
 H          3.7259612703       -1.1073996630       -1.1641447063
 H          2.9230180821       -3.0470959324       -2.2575152738
 H          1.1302436116       -4.7348397381       -2.3833292857
 H         -0.9551637874       -4.4356595452       -1.1228150766
 C         -1.6113667101       -2.3396325466        0.5601102143
 H         -1.3749047694       -2.5942273877        1.6051067404
 C         -2.7908863469       -3.1763264934        0.1068472706
 C         -3.0074499276       -4.5505042448        0.6634891053
 C         -3.9096488020       -3.4260791332        1.0716190485
 H         -4.9235563767       -3.4135524251        0.7010528654
 H         -3.8029954292       -3.0170437895        2.0663214490
 H         -3.4068647409       -5.3135739156        0.0125498186
 H         -2.2957619642       -4.9143744515        1.3893389774
 H         -3.0536824390       -2.9922854707       -0.9284260724
 O         -2.1995337086       -0.7787627028       -1.7780572793
