  62
        -98.93732351
 C         -1.7668589917       -1.5011501072        0.3554302037
 C         -1.8061615371       -0.2617493198        1.0424961936
 C         -2.8795391609        0.6804859692        0.6775550649
 C         -3.7543383503        0.3184541897       -0.2788843457
 C         -4.9081058478        1.1189375443       -0.8194903479
 C         -4.4594874861        2.2046951593       -1.8156126791
 C         -3.1567925356        2.9135982135       -1.4508346176
 H         -2.8537475251        3.5191907544       -2.3093460512
 H         -2.3809639787        2.1616176900       -1.2934359655
 C         -3.2324084883        3.8341870079       -0.2349985875
 H         -3.9279253726        4.6485689543       -0.4518645559
 H         -2.2421786996        4.2744526191       -0.0947999521
 C         -3.6655063363        3.1792290522        1.0765644625
 H         -4.7271719065        2.9483078334        1.0517329604
 H         -3.5284894889        3.9196270465        1.8704500557
 C         -2.8623906530        1.9494513947        1.4939947641
 H         -3.1762362303        1.6634429013        2.5056272112
 H         -1.8051667511        2.2205749820        1.5836634652
 H         -5.2612784274        2.9373162073       -1.9187348413
 H         -4.3124915747        1.7271212145       -2.7872415787
 H         -5.4714094617        1.5490519359        0.0037469522
 H         -5.5637296418        0.4182159109       -1.3407044390
 O         -3.6556450044       -0.8653424338       -0.9428628294
 C         -2.6645855914       -1.7931328315       -0.6709531146
 O         -2.7112377685       -2.7999259478       -1.4041894475
 O         -0.9732256640        0.0465138804        1.9370399062
 C         -0.6615380967       -2.4607890823        0.7637413134
 C          0.5516552998       -2.2196430040       -0.1008691092
 C          0.5411792231       -2.5061285760       -1.4618808191
 C          1.6496823892       -2.2329753811       -2.2430536795
 C          2.7876335064       -1.6730420543       -1.6872247691
 C          2.8037665219       -1.3767922914       -0.3310252723
 C          1.6907006717       -1.6529013731        0.4523623663
 H          1.7008963843       -1.4034977863        1.5047498992
 N          3.9590570367       -0.8015133899        0.2410652179
 S          4.3861001369        0.7364585506       -0.2632582384
 O          4.5855729048        0.7211617359       -1.6892875008
 O          5.5265590873        1.1052116287        0.5430073384
 C          2.9953432083        1.7739631432        0.1515650339
 C          1.8727557758        1.7443290597       -0.6516736171
 C          0.7823004716        2.5243162803       -0.3027425544
 C          0.8321581493        3.3137747713        0.8351874004
 C          1.9641447590        3.3275472175        1.6346522269
 C          3.0564041997        2.5470770618        1.2936938786
 H          3.9592477930        2.5305556339        1.8829652413
 H          1.9962616768        3.9407596328        2.5208876610
 H         -0.0176834077        3.9229163078        1.1014162946
 H         -0.1031804578        2.5101393732       -0.9184598647
 H          1.8678189176        1.1227465243       -1.5329396119
 H          3.9513410416       -0.8216922340        1.2517154344
 H          3.6518676662       -1.4404757100       -2.2877175975
 H          1.6289048057       -2.4585319092       -3.2987509175
 H         -0.3506647513       -2.9247318308       -1.9032779355
 H         -0.3977127125       -2.1743820165        1.7909104243
 C         -1.0681368576       -3.9193514419        0.7660769049
 C         -0.2691000006       -4.8891698771        1.5823185878
 C         -1.6554553864       -4.5130231199        2.0097055240
 H         -2.4452534146       -5.2418538031        1.9074461546
 H         -1.7668916508       -3.8680490926        2.8692706355
 H         -0.1029128585       -5.8794409704        1.1872677115
 H          0.5601858141       -4.4995240651        2.1534089407
 H         -1.4641573226       -4.2640137707       -0.1793225278
