  62
        -98.94007018
 C         -2.5893940717       -1.1630826174        0.3042397909
 C         -2.6012755089       -0.3531409282       -0.8585565892
 C         -3.5184535457        0.7979642370       -0.8274943657
 C         -4.2622699429        1.0259605557        0.2692341981
 C         -5.1923257003        2.1896067401        0.4513443265
 C         -4.4730444200        3.3774857429        1.1059000459
 C         -3.1390082545        3.7309830407        0.4479071312
 H         -2.7375313175        4.5999188061        0.9740874584
 H         -2.4353858575        2.9093686012        0.6031909428
 C         -3.2328392523        4.0394399014       -1.0530249135
 H         -4.2660991361        4.2636227800       -1.3203611351
 H         -2.6421442606        4.9334096499       -1.2634423267
 C         -2.7028512255        2.9302714230       -1.9638508715
 H         -1.7009903069        2.6357546684       -1.6404353252
 H         -2.6137612514        3.3353903649       -2.9752125153
 C         -3.5698759837        1.6680012440       -2.0518472967
 H         -4.5999594306        1.9436595345       -2.2863396041
 H         -3.1809928966        1.0561276538       -2.8709263247
 H         -5.1368860474        4.2432723881        1.0743337777
 H         -4.2835951871        3.1330116720        2.1538917978
 H         -5.5932853783        2.4825005142       -0.5169598548
 H         -6.0150185483        1.8749362086        1.0956871532
 O         -4.2073566743        0.2395679525        1.3754019793
 C         -3.3586551008       -0.8543396312        1.4283624486
 O         -3.3728806039       -1.4593580278        2.5198271201
 H         -0.1737847342       -0.3792672152        1.3156103392
 C          0.3485279410       -0.9294976267        0.5404487026
 C         -0.2866587180       -2.0098426908       -0.0615963154
 C          0.3952636769       -2.7102576041       -1.0467907921
 C          1.6713370950       -2.3268643965       -1.4223931989
 C          2.2926496276       -1.2435637767       -0.8300629646
 C          1.6212072120       -0.5368467162        0.1593476299
 N          2.2440034371        0.5753663042        0.7593742975
 S          3.7372023906        0.3154146261        1.4879005283
 O          3.8602962151       -1.0436018693        1.9634868304
 O          3.8596733890        1.3580983362        2.4837136983
 C          4.9121642486        0.6152752532        0.1849030699
 C          5.8021246311       -0.3755504015       -0.1806953092
 C          6.7136055441       -0.1166722250       -1.1926447712
 C          6.7192310482        1.1216700643       -1.8162559370
 C          5.8199613134        2.1067363448       -1.4355085475
 C          4.9067806003        1.8548457229       -0.4241815890
 H          4.1944821638        2.5931874328       -0.0955030236
 H          5.8272035731        3.0683050350       -1.9230518442
 H          7.4286607910        1.3206883933       -2.6039183893
 H          7.4132900217       -0.8810523540       -1.4903207613
 H          5.7566468911       -1.3243817184        0.3295721314
 H          1.6387547144        1.0818644309        1.3896564460
 H          3.2819789521       -0.9367233208       -1.1279276682
 H          2.1865825721       -2.8767711800       -2.1951019500
 H         -0.0791715253       -3.5441942347       -1.5369001135
 C         -1.6713588331       -2.3675638128        0.4227504703
 H         -1.6000687118       -2.5629816829        1.5064856620
 C         -2.2230087642       -3.6386805591       -0.2059353977
 C         -3.6996064703       -3.8504409145       -0.3536267643
 C         -2.8455886885       -3.6551233511       -1.5683817066
 H         -2.6610702752       -4.5082796401       -2.2047808003
 H         -2.9075689629       -2.7185586821       -2.0987430573
 H         -4.0975337873       -4.8339772544       -0.1532320586
 H         -4.3542889806       -3.0459705187       -0.0505749623
 H         -1.6424765892       -4.5117525192        0.0764401062
 O         -1.8900598315       -0.5661133453       -1.8728164912
