  62
        -98.94285131
 C         -2.0136691333       -1.4672947604        0.0050701269
 C         -1.6725686809       -0.1921083796       -0.5063455128
 C         -2.7999688494        0.7057234517       -0.8018739888
 C         -4.0578209781        0.2865061836       -0.5782855856
 C         -5.2887666089        1.1220090674       -0.7740863981
 C         -5.6590689202        1.8722460657        0.5135045927
 C         -4.4867573440        2.6102804164        1.1605312730
 H         -4.8745666662        3.1222441838        2.0439223004
 H         -3.7539127239        1.8790699631        1.5094702004
 C         -3.7909560795        3.6271573020        0.2448728766
 H         -4.4423419547        3.8762129606       -0.5936901380
 H         -3.6224099898        4.5470488946        0.8086744875
 C         -2.4301090158        3.1747615320       -0.2881144319
 H         -1.8061069001        2.8346769238        0.5425242048
 H         -1.9385484705        4.0411573799       -0.7389028892
 C         -2.4681877675        2.0662218335       -1.3475500204
 H         -3.1613776968        2.3419451054       -2.1448370275
 H         -1.4661756078        1.9804136466       -1.7787211841
 H         -6.4553332706        2.5820325225        0.2819359005
 H         -6.0478751936        1.1495961021        1.2348271277
 H         -5.1171164621        1.8294657457       -1.5830657085
 H         -6.1131930273        0.4621738570       -1.0496257662
 O         -4.3484167935       -0.9451825601       -0.0862055776
 C         -3.3406270534       -1.8400597086        0.2354126950
 O         -3.7468942093       -2.9157129851        0.7179385477
 H          1.7486300252       -2.1820176185       -0.2433103432
 C          1.4729609910       -1.7567368664        0.7069374178
 C          0.1611203660       -1.8010667171        1.1522909484
 C         -0.1508379663       -1.2042224173        2.3720118592
 C          0.8217802793       -0.5727395524        3.1215784134
 C          2.1294536867       -0.5249749805        2.6706918453
 C          2.4532513808       -1.1191159463        1.4573094315
 N          3.7830986307       -1.1158701119        0.9956076128
 S          4.1749739133       -0.4926755732       -0.5080277125
 O          3.4429878018       -1.1847800049       -1.5354276131
 O          5.6177507502       -0.5932318270       -0.5745816972
 C          3.7134547311        1.2290535932       -0.4252742638
 C          4.7078582030        2.1686853572       -0.2293922536
 C          4.3573665019        3.5029709470       -0.1056301221
 C          3.0220315877        3.8727921557       -0.1683221854
 C          2.0377705984        2.9160197260       -0.3597394589
 C          2.3796914349        1.5782277854       -0.4905117946
 H          1.6235387316        0.8243741024       -0.6397667051
 H          0.9962865828        3.1927487073       -0.4068025716
 H          2.7465269889        4.9109623376       -0.0680662862
 H          5.1229066376        4.2477921377        0.0417977154
 H          5.7320742101        1.8344994755       -0.1877380796
 H          4.4447326204       -0.7646731007        1.6741424815
 H          2.8933478668       -0.0330230553        3.2538883576
 H          0.5617316541       -0.1118244721        4.0626326712
 H         -1.1745091537       -1.2399425592        2.7211447152
 C         -0.9468799245       -2.4802635070        0.3840215151
 H         -1.4499544377       -3.1797019840        1.0729084159
 C         -0.4380075131       -3.3142735475       -0.7818324373
 C         -1.3281828709       -3.6580554783       -1.9377364517
 C         -0.1701775816       -2.7284707360       -2.1337814707
 H          0.6928579141       -3.0780261303       -2.6819739375
 H         -0.3686169713       -1.6778531804       -2.2732185486
 H         -1.2683892700       -4.6532302879       -2.3521110021
 H         -2.3256656579       -3.2426953186       -1.9432363840
 H          0.2379598264       -4.0977151388       -0.4513061422
 O         -0.4932387654        0.1944544364       -0.7063879674
