  62
        -98.94274090
 C         -1.4378883612       -1.1935661029        0.0181835673
 C         -2.6845492649       -1.2899341766        0.6913910988
 C         -3.4332862456       -0.0386196740        0.8655322300
 C         -2.8844089471        1.1160761719        0.4475809494
 C         -3.5445733654        2.4608330552        0.5359453300
 C         -4.3416321867        2.7731887301       -0.7380362487
 C         -5.2749763949        1.6435929027       -1.1736188306
 H         -5.8094509642        1.9866677148       -2.0621861976
 H         -4.6757243397        0.7807808591       -1.4733621836
 C         -6.2875999821        1.2087877208       -0.1048646395
 H         -6.3790160842        1.9839312480        0.6568737572
 H         -7.2675322794        1.0999185905       -0.5745659182
 C         -5.9664686531       -0.1272275870        0.5682274680
 H         -5.7847992823       -0.8875317728       -0.1959123600
 H         -6.8460504517       -0.4410215090        1.1368083930
 C         -4.7759683582       -0.1196044777        1.5356546421
 H         -4.7833582830       -1.0690148226        2.0792383346
 H         -4.8960088354        0.6896630139        2.2589402271
 H         -3.6368831865        2.9663627270       -1.5499689292
 H         -4.9225554577        3.6816225369       -0.5686044218
 H         -4.2026654160        2.4805733335        1.4024445920
 H         -2.7692717237        3.2176698643        0.6632792114
 O         -1.6715607309        1.1796596524       -0.1517139748
 C         -0.9223928214        0.0357863440       -0.4032066903
 O          0.1453783212        0.2677772001       -0.9960723927
 O         -3.1493231374       -2.3759978682        1.1301530880
 C         -0.6348821891       -2.4764291760       -0.1327857540
 C          0.7380517098       -2.2440707864        0.4399025476
 C          0.9382328778       -2.3372969666        1.8132304683
 C          2.1638012605       -2.0216896345        2.3707844380
 C          3.2024674801       -1.5743272034        1.5729397924
 C          3.0042114299       -1.4615161903        0.2030677943
 C          1.7912967406       -1.8305581814       -0.3609261795
 H          1.6499412485       -1.7448109214       -1.4266767157
 N          4.0369228984       -0.9519848407       -0.6119222355
 S          4.6152034560        0.5753385664       -0.2325753260
 O          5.3683389828        0.9914610664       -1.3950574647
 O          5.3574221222        0.4949912645        1.0020717738
 C          3.1931342551        1.6287853472       -0.0148227917
 C          2.7082611675        2.3183439951       -1.1066606880
 C          1.5870198254        3.1152860435       -0.9528092130
 C          0.9650564263        3.1981867953        0.2819652065
 C          1.4610270419        2.4956089577        1.3679702857
 C          2.5879367431        1.7037177078        1.2228638948
 H          3.0038041133        1.1482580936        2.0475853917
 H          0.9680137521        2.5540643581        2.3259162023
 H          0.0821454022        3.8076326109        0.3964288826
 H          1.1922253590        3.6564518009       -1.7978223793
 H          3.2188768956        2.2243523864       -2.0518022729
 H          3.7961715354       -0.9703290093       -1.5934639687
 H          4.1543777510       -1.2898456355        1.9918315379
 H          2.3091015715       -2.1101434415        3.4369392500
 H          0.1160461887       -2.6491750841        2.4423758571
 H         -1.1598582889       -3.2029192364        0.5074944960
 C         -0.6071567431       -3.0725317286       -1.5316337669
 C         -1.8597557627       -3.1198121803       -2.3537546675
 C         -0.7127906934       -2.2581956393       -2.7844336819
 H         -0.1338502783       -2.5709942248       -3.6416372597
 H         -0.8062128839       -1.1881235959       -2.6910670538
 H         -2.0776737251       -4.0138162550       -2.9182672146
 H         -2.7349815203       -2.6355247243       -1.9454533886
 H          0.0346898886       -3.9475448548       -1.5783145821
