  62
        -98.94504179
 C         -1.0965324591       -1.8675212534       -0.6909552654
 C         -0.4037034250       -2.3817745052        0.4349780049
 C          1.0328648112       -2.6511873025        0.2327066064
 C          1.5983640390       -2.4076041938       -0.9618523077
 C          3.0523468295       -2.5897403425       -1.2854748209
 C          3.8552157408       -1.3070181993       -1.0309423305
 C          3.6339297456       -0.6949931552        0.3524210869
 H          4.3027457731        0.1647556029        0.4396081709
 H          2.6155613926       -0.3077401959        0.4259425524
 C          3.8783475016       -1.6542936922        1.5250201018
 H          4.4796265824       -2.5039456421        1.1974088554
 H          4.4487141234       -1.1272563595        2.2928306051
 C          2.5974353540       -2.1585452841        2.1934741120
 H          2.8678476457       -2.6134052374        3.1508155812
 H          1.9437817461       -1.3086342165        2.4076135178
 C          1.7980145339       -3.2024387060        1.4024106453
 H          2.4624545199       -4.0085113091        1.0811375029
 H          1.0473805765       -3.6242645050        2.0777255550
 H          4.9146672315       -1.5366551870       -1.1598772551
 H          3.5733354498       -0.5634367585       -1.7800123326
 H          3.4519959969       -3.4047714947       -0.6850471505
 H          3.1355606710       -2.8539364164       -2.3412710883
 O          0.8988224781       -1.9319023188       -2.0240693714
 C         -0.4494924481       -1.6364308410       -1.9082760877
 O         -0.9617867986       -1.1835144384       -2.9514806309
 O         -0.9325295569       -2.6238763645        1.5489758522
 C         -2.5600257977       -1.4503900093       -0.6744913432
 C         -2.6515528256        0.0391766865       -0.4493067226
 C         -3.4857557532        0.8346521226       -1.2257036478
 C         -3.5279501060        2.2044028156       -1.0350915740
 C         -2.7175328238        2.8080129312       -0.0905405625
 C         -1.8753091573        2.0225921140        0.6885333614
 C         -1.8676955903        0.6450454908        0.5229662204
 H         -1.2242688301        0.0443842507        1.1481366187
 N         -1.0208552176        2.6073034018        1.6409484943
 S          0.6025208205        2.1945549137        1.6403961040
 O          0.7674591710        0.8249257589        2.0458899811
 O          1.2268018112        3.1931844852        2.4801380028
 C          1.1298283341        2.4176438324       -0.0478429021
 C          1.6881166847        3.6240008975       -0.4231192590
 C          2.0483041704        3.8124345859       -1.7476232256
 C          1.8338516347        2.8021880316       -2.6737423920
 C          1.2689568650        1.5980175502       -2.2829484099
 C          0.9163251426        1.4021438101       -0.9574480658
 H          0.4771139219        0.4735213629       -0.6281443286
 H          1.0855159730        0.8069281537       -2.9942337685
 H          2.1077365041        2.9506189887       -3.7063639159
 H          2.4909364724        4.7458995144       -2.0558694757
 H          1.8400170693        4.3800295881        0.3301909080
 H         -1.1191286582        3.6097954606        1.7195368280
 H         -2.7311330687        3.8789868085        0.0431015966
 H         -4.1826051403        2.8110194595       -1.6417288026
 H         -4.0892799324        0.3744798942       -1.9939174116
 H         -2.9343319583       -1.6474268130       -1.6926546984
 C         -3.4269064294       -2.2498284227        0.2852671225
 C         -3.9239929715       -1.7061036423        1.5871965158
 C         -4.8775245578       -1.9036450638        0.4493812939
 H         -5.5955763733       -2.7073005217        0.5093529879
 H         -5.2407819432       -1.0207473575       -0.0543883295
 H         -3.9619235207       -2.3815184610        2.4281366747
 H         -3.6476670278       -0.6983929221        1.8572979699
 H         -3.1770419472       -3.3052761413        0.2715554074
