  62
        -98.93831524
 C         -1.9280695449       -0.8663298806        0.1230603019
 C         -2.3539544071        0.4817088805        0.1124696896
 C         -3.7704068070        0.7193160443        0.4495456966
 C         -4.5556968155       -0.3273222996        0.7573315010
 C         -6.0275098602       -0.3067403078        1.0643231551
 C         -6.8491607463       -0.5720944322       -0.2086699064
 C         -7.1712879381        0.6699565070       -1.0387722722
 H         -7.6336964705        0.3286726971       -1.9678513307
 H         -7.9101080501        1.2743587545       -0.5083050839
 C         -5.9725321743        1.5574342517       -1.3844691554
 H         -6.2447507802        2.1649788382       -2.2498687720
 H         -5.1258419494        0.9355402379       -1.6810590608
 C         -5.5593895881        2.4890469624       -0.2352755086
 H         -5.4801863216        3.5115981794       -0.6103057624
 H         -6.3478875276        2.4963493672        0.5171969848
 C         -4.2146399059        2.1563549347        0.4295704489
 H         -3.4100891855        2.6857572920       -0.0908793647
 H         -4.2211484212        2.5344185868        1.4573814862
 H         -7.7928355231       -1.0425313301        0.0746528493
 H         -6.2965699864       -1.2901903502       -0.8199481963
 H         -6.2104348713       -1.1182734688        1.7716241135
 H         -6.3116446518        0.6334232319        1.5274204072
 O         -4.0968395194       -1.6091039907        0.7763709567
 C         -2.7862561811       -1.9127202618        0.4599996818
 O         -2.5078283611       -3.1274252041        0.5185046590
 H          1.5255304740        0.6174037432       -0.7710817435
 C          1.4156395567        0.3828931090        0.2736027137
 C          0.4495301179       -0.5118059155        0.7031082546
 C          0.3284477272       -0.7611759614        2.0687354100
 C          1.1440014698       -0.1194052887        2.9791337963
 C          2.1043655440        0.7791049135        2.5467717620
 C          2.2351044018        1.0345165761        1.1874836475
 N          3.1821479995        1.9638241288        0.7314093346
 S          4.1219743312        1.6730670799       -0.6170115212
 O          5.1572076511        2.6810143796       -0.5556197257
 O          3.3127826567        1.6599825652       -1.8079775734
 C          4.8328747909        0.0631395934       -0.3287782507
 C          4.2219127168       -1.0589115707       -0.8502951632
 C          4.7579961882       -2.3050806029       -0.5653480646
 C          5.8874114901       -2.4073490619        0.2318009226
 C          6.4912799992       -1.2697018764        0.7460327981
 C          5.9584217462       -0.0217816620        0.4679450382
 H          6.4033933314        0.8879676643        0.8372017052
 H          7.3723839299       -1.3523295299        1.3617729231
 H          6.3005406317       -3.3794186143        0.4503437481
 H          4.2908534497       -3.1902703537       -0.9668336746
 H          3.3485095469       -0.9412587200       -1.4697975799
 H          3.7265161734        2.3992544795        1.4612575154
 H          2.7364617003        1.2901560337        3.2569962313
 H          1.0337510649       -0.3187814004        4.0344175524
 H         -0.4271607961       -1.4591222831        2.4039574843
 C         -0.4947576254       -1.2190305931       -0.2374598366
 H         -0.4006312616       -2.3013139330       -0.0673497477
 C         -0.2391920431       -0.9345344033       -1.7021164320
 C          0.7908334859       -1.7232560462       -2.4511558420
 C         -0.6665628034       -1.9465250121       -2.7207330991
 H         -1.0807100624       -1.5955994087       -3.6540915337
 H         -1.1216861302       -2.8558059023       -2.3551080888
 H          1.3213410069       -2.4909285882       -1.9079471872
 H          1.3805938873       -1.2179893683       -3.2020283606
 H         -0.3680504975        0.1108457488       -1.9589599071
 O         -1.5962888393        1.4461849532       -0.1726558833
