  62
        -98.93117422
 C         -2.4419485847       -1.2769273561       -0.3081629770
 C         -1.9848246799        0.0464852773       -0.0989003826
 C         -2.9552273421        1.0065776913        0.4749930066
 C         -4.1943744931        0.5831868466        0.7812802527
 C         -5.3502714980        1.3765740279        1.3308605964
 C         -6.0161816327        2.2695170678        0.2720784745
 C         -5.0461209955        3.0449535853       -0.6149117569
 H         -4.3895863100        2.3405431354       -1.1286663748
 H         -5.6341996852        3.5579687969       -1.3803839600
 C         -4.2018806273        4.0928762420        0.1064929528
 H         -3.6371963487        4.6350577062       -0.6562136486
 H         -4.8632298168        4.8081164978        0.6003814981
 C         -3.2070545854        3.5563389545        1.1387430726
 H         -2.5110674989        4.3672678346        1.3729094070
 H         -3.7038773033        3.3002747334        2.0707049502
 C         -2.3606280849        2.3829363572        0.6554222896
 H         -1.9012383695        2.6451405112       -0.3046525425
 H         -1.5196139729        2.2481918170        1.3473797013
 H         -6.6847522860        2.9660205643        0.7808350710
 H         -6.6227426403        1.6313441516       -0.3751997310
 H         -6.0854160493        0.6507838557        1.6858691199
 H         -5.0276253402        1.9640088290        2.1853875809
 O         -4.5856918996       -0.7078492853        0.5794860203
 C         -3.7365282073       -1.6597880379        0.0559684174
 O         -4.2401921514       -2.7973901962       -0.0372294006
 H          0.8746009909       -1.2781684675       -1.4398775042
 C          0.8790663579       -1.7885068351       -0.4895835548
 C         -0.2709045807       -2.4232347250       -0.0500371174
 C         -0.2577854114       -3.0476445636        1.1930919615
 C          0.8822859675       -3.0376011263        1.9755239728
 C          2.0255130774       -2.3908266381        1.5404358241
 C          2.0153188757       -1.7521058843        0.3080074591
 N          3.1670616326       -1.0735631043       -0.1341035993
 S          3.9736259986       -0.1324883003        1.0155873016
 O          4.9040594516       -0.9829573410        1.7184954105
 O          3.0306094221        0.5818056404        1.8459638309
 C          4.8652576570        1.0016751084       -0.0308728142
 C          6.1702603918        0.7195457982       -0.3858394312
 C          6.8417934438        1.5991746234       -1.2203974174
 C          6.2002558550        2.7377521034       -1.6841695734
 C          4.8892999369        3.0071606425       -1.3194450367
 C          4.2116572618        2.1317432731       -0.4857297979
 H          3.1943142681        2.3059949712       -0.1710404798
 H          4.3927226809        3.8936347914       -1.6802422142
 H          6.7246342693        3.4218529450       -2.3325302797
 H          7.8611356333        1.3945044778       -1.5052602479
 H          6.6283042259       -0.1738556706        0.0052634819
 H          2.9758875877       -0.5298665145       -0.9652514549
 H          2.9154295010       -2.3515556473        2.1485959570
 H          0.8795273147       -3.5279872478        2.9377071130
 H         -1.1592246780       -3.5303042596        1.5462480077
 C         -1.5506165112       -2.3860682895       -0.8463563295
 H         -2.1054298533       -3.3145218220       -0.6380533209
 C         -1.3154624192       -2.3522633948       -2.3491469427
 C         -2.4492326082       -2.0451296662       -3.2807745981
 C         -1.3005024714       -1.0920341506       -3.1581793426
 H         -0.6025684946       -1.0266021036       -3.9803912598
 H         -1.4580256163       -0.1572474310       -2.6449686172
 H         -2.5474045343       -2.6252042579       -4.1858191379
 H         -3.3930859704       -1.7683360798       -2.8331500137
 H         -0.6317718718       -3.1361664509       -2.6611991429
 O         -0.8269307890        0.4496737011       -0.3838686279
