  62
        -98.93972999
 C          2.2173677326        0.7833303419        0.1603886923
 C          2.4218214549       -0.4009993043        0.9077805344
 C          3.1380341418       -1.4822705364        0.2189620523
 C          3.5089042422       -1.3108057223       -1.0632965828
 C          4.2922212807       -2.3054026863       -1.8690154580
 C          5.8013279102       -2.0525405331       -1.7443815573
 C          6.2842480229       -1.8944747228       -0.3025439044
 H          7.3666247228       -1.7527644457       -0.3359533281
 H          5.8541908584       -0.9833238913        0.1196927234
 C          5.9518767123       -3.0818948195        0.6118122106
 H          5.7125835756       -3.9584124723        0.0086688019
 H          6.8367713412       -3.3270092521        1.2028900687
 C          4.8143751944       -2.8212559723        1.6009598844
 H          5.0074990894       -1.8927804676        2.1442475677
 H          4.8077500444       -3.6331643498        2.3330897183
 C          3.4076423414       -2.7412376121        0.9946304764
 H          3.2230768217       -3.6220005366        0.3762501533
 H          2.6898835568       -2.7437956046        1.8202747896
 H          6.3303847805       -2.8810776424       -2.2187336626
 H          6.0447196655       -1.1374110486       -2.2890940231
 H          4.0525170132       -3.3112957383       -1.5298982867
 H          4.0011476449       -2.2047056308       -2.9158943862
 O          3.2487011183       -0.1788480248       -1.7651704864
 C          2.6029553810        0.8984834289       -1.1756618230
 O          2.4365943412        1.8718727293       -1.9333281310
 H         -0.4409576539        0.1786366244        0.5679132682
 C         -0.7222146187        1.1157986935        0.1030414563
 C          0.1759213959        2.1766597418        0.1371926623
 C         -0.1960873394        3.3784619233       -0.4479778388
 C         -1.4286838700        3.5016001940       -1.0674117884
 C         -2.3123363581        2.4399353293       -1.1134367612
 C         -1.9549078470        1.2352951454       -0.5198180865
 N         -2.8398638234        0.1397447573       -0.5690498779
 S         -4.4566510180        0.4527739653       -0.1844349387
 O         -5.1018948139        1.0126458500       -1.3452035130
 O         -4.5345803702        1.2445764033        1.0231303602
 C         -5.0671620469       -1.1947359975        0.1097998232
 C         -5.1081156379       -1.6782923041        1.4037473024
 C         -5.5618785234       -2.9695215789        1.6225397377
 C         -5.9616432436       -3.7514922574        0.5492266646
 C         -5.9152245496       -3.2516735959       -0.7438055253
 C         -5.4635704203       -1.9611751779       -0.9696043348
 H         -5.4185434082       -1.5276026925       -1.9549501067
 H         -6.2295956590       -3.8620708243       -1.5749221408
 H         -6.3147512053       -4.7557545097        0.7225932518
 H         -5.6018650591       -3.3594967472        2.6269149263
 H         -4.7964567430       -1.0320677210        2.2088184382
 H         -2.4932950470       -0.6434119745       -0.0310870004
 H         -3.2749460944        2.5280586963       -1.5906912074
 H         -1.7045724224        4.4402178614       -1.5242772747
 H          0.4789469843        4.2178571722       -0.4274601444
 C          1.5022575060        1.9491399679        0.8208956925
 H          1.2969394064        1.6184881417        1.8498923362
 C          2.3895897798        3.1735740163        0.8725946219
 C          2.1463343893        4.2293731235        1.9079658564
 C          3.3407991859        3.3315982602        2.0194561041
 H          4.3187656365        3.7455466546        1.8248486305
 H          3.3353366667        2.5641595416        2.7798560335
 H          2.3052813226        5.2625151469        1.6387155275
 H          1.3285209404        4.0745716061        2.5955066426
 H          2.7330188432        3.4851705406       -0.1070223410
 O          2.0184422940       -0.5488643404        2.0939889493
