  62
        -98.93298174
 C         -2.1111387690       -1.1505905736       -0.5033598111
 C         -3.1673514119       -0.8348162510        0.3884366577
 C         -3.8193332249        0.4769574354        0.2301097958
 C         -3.3608005860        1.3191252052       -0.7127059215
 C         -3.8465338257        2.7017578610       -1.0671096323
 C         -4.1591754372        3.6433624444        0.1060381834
 C         -5.6535822879        3.9161936590        0.2861865588
 H         -5.7736818645        4.8694172845        0.8057139340
 H         -6.1081283404        4.0233443636       -0.7008563516
 C         -6.4162141314        2.8579793020        1.0813500588
 H         -7.4798808269        3.0983982529        1.0153217657
 H         -6.1329125820        2.9237155000        2.1340895821
 C         -6.2097561417        1.4151784721        0.6160276186
 H         -7.0677690684        0.8299156973        0.9532301055
 H         -6.1965270425        1.3627422597       -0.4719763623
 C         -4.9442759603        0.7588943793        1.1882203120
 H         -4.5563686613        1.3551361578        2.0194532521
 H         -5.1958012470       -0.2178687676        1.6131183422
 H         -3.7310658383        3.2450255927        1.0249156437
 H         -3.6642484000        4.5957109492       -0.0916063842
 H         -4.7249641230        2.6064963874       -1.7103599542
 H         -3.0531415589        3.1296349617       -1.6842485057
 O         -2.3340079316        0.9811780676       -1.5415414556
 C         -1.6850572345       -0.2388131562       -1.4677306160
 O         -0.7728317025       -0.3623634703       -2.3108943294
 O         -3.5619980559       -1.6301333910        1.2835526445
 C         -1.4512987950       -2.5090311447       -0.3259234809
 C         -0.1697217827       -2.3658041742        0.4602364787
 C         -0.0559981388       -2.8853378426        1.7442372419
 C          1.1075573468       -2.7134083650        2.4742707587
 C          2.1786822625       -2.0173529481        1.9428895438
 C          2.0697427158       -1.4871226998        0.6642492318
 C          0.9090708159       -1.6730626988       -0.0709889298
 H          0.8269508302       -1.2433267814       -1.0585853899
 N          3.1505184767       -0.7542088176        0.1126811980
 S          3.4516074010        0.7261972836        0.8758435659
 O          3.7884875383        0.4698235362        2.2527572731
 O          2.3515758811        1.6416900229        0.6502237688
 C          4.8973239791        1.2674253002       -0.0132194104
 C          6.1357950391        0.8049779714        0.3879266545
 C          7.2585299941        1.1953625615       -0.3241687834
 C          7.1245227080        2.0351052503       -1.4198729582
 C          5.8744565848        2.4909394538       -1.8103136785
 C          4.7473192571        2.1031672335       -1.1028522949
 H          3.7567020460        2.4395653781       -1.3659314326
 H          5.7723387328        3.1450605907       -2.6613407323
 H          7.9995366239        2.3384492017       -1.9727069466
 H          8.2324973438        0.8446982893       -0.0233447014
 H          6.1908316847        0.1605765859        1.2494229526
 H          2.9701871576       -0.5524844995       -0.8641292801
 H          3.0804126806       -1.8557020486        2.5097776194
 H          1.1799936085       -3.1220713291        3.4708676957
 H         -0.8964690940       -3.4086164978        2.1768966362
 H         -2.1540139648       -3.0906437598        0.2855961421
 C         -1.2237822829       -3.2474845258       -1.6298661346
 C         -1.0285997792       -4.7326873548       -1.5961225362
 C         -2.2938252829       -4.1552852075       -2.1542255684
 H         -2.4559415403       -4.1958076858       -3.2208250200
 H         -3.1986778342       -4.2495115464       -1.5717191073
 H         -0.3190858432       -5.1736978826       -2.2790555557
 H         -1.0753945803       -5.2200845857       -0.6341090136
 H         -0.6566403757       -2.6797938286       -2.3556091260
