  62
        -98.94021585
 C         -2.4755950801       -1.0942028001        0.0818581779
 C         -2.7240556601       -0.0357004292       -0.8246166310
 C         -4.1337539001        0.3512492109       -0.9816726507
 C         -5.0814096001       -0.3149506798       -0.2968642713
 C         -6.5457032201        0.0134206502       -0.3178944510
 C         -6.9068153502        1.0036412590        0.7984374899
 C         -5.9867668402        2.2227628490        0.8641312012
 H         -6.3535420003        2.8639471282        1.6685949618
 H         -4.9824469502        1.8973939388        1.1451993409
 C         -5.9094013802        3.0305762003       -0.4388666980
 H         -6.7566539302        2.7825664209       -1.0791589783
 H         -5.9852648503        4.0927806301       -0.1972452470
 C         -4.6098135802        2.8445352011       -1.2244168082
 H         -4.5680627502        3.6138848319       -2.0000136874
 H         -3.7539833802        3.0006251005       -0.5625713580
 C         -4.4383523701        1.4869144018       -1.9175383695
 H         -3.5756670501        1.5618160725       -2.5860711095
 H         -5.3220242301        1.2656034624       -2.5194500798
 H         -7.9373488002        1.3308715191        0.6495747102
 H         -6.8509062802        0.4806782581        1.7559685694
 H         -7.1073265201       -0.9101077700       -0.1681534820
 H         -6.8051118101        0.4321912011       -1.2881171306
 O         -4.8041725201       -1.3439465606        0.5449661976
 C         -3.4987523001       -1.7503211408        0.7651851473
 O         -3.3807213800       -2.6880083116        1.5803392063
 O         -1.8184421401        0.5576809415       -1.4669094304
 C         -1.0524899701       -1.5590595003        0.3254123075
 C         -0.1875896801       -0.4125888407        0.7910583986
 C         -0.6688305702        0.4468178083        1.7758992895
 C          0.1044167298        1.4922950879        2.2412049405
 C          1.3836441398        1.6918944084        1.7521389508
 C          1.8757972098        0.8376532294        0.7734657499
 C          1.0900306499       -0.2035296501        0.2976653089
 H          1.4990054999       -0.8484077694       -0.4617300818
 N          3.1629570698        1.0197200500        0.2424083401
 S          4.0560551099       -0.3513922295       -0.1752711212
 O          3.6912707999       -0.7629819482       -1.5071938916
 O          3.9365434799       -1.3530985606        0.8600394078
 C          5.7065569699        0.3253980405       -0.1882630205
 C          6.1445904699        0.9937960217       -1.3160311098
 C          7.4187326798        1.5388473017       -1.3187370493
 C          8.2290975198        1.4079003707       -0.2006190994
 C          7.7763507598        0.7333459995        0.9232860899
 C          6.5027063799        0.1867157195        0.9331407494
 H          6.1123429899       -0.3547849614        1.7798330988
 H          8.4097453698        0.6301672387        1.7895716298
 H          9.2209951198        1.8314593207       -0.2064973089
 H          7.7753466298        2.0612079026       -2.1917745687
 H          5.4839407099        1.0613356625       -2.1646551298
 H          3.7167455298        1.6817754195        0.7684484208
 H          1.9904807597        2.5052210081        2.1201715116
 H         -0.2874843503        2.1530559271        3.0000800112
 H         -1.6634248802        0.2830859079        2.1696084393
 H         -1.1052091600       -2.2942126211        1.1431334768
 C         -0.5143430000       -2.2500734890       -0.9105715632
 C          0.5249319300       -3.3220774991       -0.7868664342
 C         -0.8799981499       -3.6800948588       -1.1657726846
 H         -1.0785915799       -3.9890249978       -2.1809943149
 H         -1.4996372299       -4.1706871195       -0.4289913351
 H          1.2975844701       -3.3781863183       -1.5396827443
 H          0.8675493500       -3.5747792201        0.2057258955
 H         -0.4598593200       -1.5861964882       -1.7665690125
