  62
        -98.93798791
 C          1.5976127823        1.6181823206        0.2671091125
 C          1.7773228533        0.4561213501        1.0572378664
 C          2.8728647621       -0.4581495014        0.6838647697
 C          3.6251442479       -0.1547846797       -0.3904999842
 C          4.7940808745       -0.9122106192       -0.9650547401
 C          4.3725995658       -2.1652430750       -1.7462886100
 C          3.3290558712       -3.0263326470       -1.0416063184
 H          3.0424656713       -3.8291225995       -1.7260943215
 H          2.4426472807       -2.4191142452       -0.8546247162
 C          3.7931931780       -3.6647568581        0.2656395157
 H          4.6963396088       -4.2496850997        0.0787241899
 H          3.0134003635       -4.3603951627        0.5861458478
 C          4.0664370069       -2.6984712599        1.4217296045
 H          5.0430773557       -2.2314232170        1.3239950973
 H          4.0991524120       -3.2914089540        2.3403214155
 C          2.9977039156       -1.6294786814        1.6281552549
 H          3.1362638311       -1.1872226278        2.6218989745
 H          2.0092325486       -2.1015228063        1.6612817254
 H          5.2647611390       -2.7591409987       -1.9525066473
 H          3.9533457739       -1.8439508171       -2.7029821661
 H          5.4954246726       -1.1690899647       -0.1766342608
 H          5.3005952823       -0.2288881132       -1.6504014935
 O          3.3774330755        0.9441976310       -1.1570845871
 C          2.3679265218        1.8461208580       -0.8728253936
 O          2.2808292601        2.7753374119       -1.6984373389
 O          1.0544315856        0.1932386785        2.0564064495
 C          0.4963845683        2.5732169374        0.6976122172
 C         -0.7687595013        2.2442770021       -0.0560043359
 C         -0.9389329929        2.5857234463       -1.3932225450
 C         -2.0970363557        2.2322848566       -2.0628071741
 C         -3.1045229940        1.5341111358       -1.4188639164
 C         -2.9354370743        1.1749539198       -0.0883337616
 C         -1.7749690271        1.5337117843        0.5836005350
 H         -1.6387734086        1.2389514199        1.6154387405
 N         -3.9505944192        0.4511474501        0.5737929839
 S         -4.3057552526       -1.0778165355       -0.0072307014
 O         -4.7941123132       -0.9635198046       -1.3571799212
 O         -5.2115775754       -1.6565733038        0.9576773415
 C         -2.7545374053       -1.9573277462        0.0110835105
 C         -1.8585988177       -1.7580271917       -1.0202938830
 C         -0.6372456443       -2.4103333758       -0.9782887570
 C         -0.3356352364       -3.2461619046        0.0855858714
 C         -1.2431961446       -3.4300131574        1.1167910864
 C         -2.4633416110       -2.7752422777        1.0842717550
 H         -3.2005401849       -2.8935798290        1.8622062182
 H         -1.0019153563       -4.0773609194        1.9446280400
 H          0.6130235603       -3.7589485402        0.1075277321
 H          0.0741618114       -2.2625022122       -1.7758139338
 H         -2.1286834427       -1.1080545723       -1.8368282436
 H         -3.8054737001        0.3948565335        1.5725579186
 H         -4.0063509440        1.2423840967       -1.9323107467
 H         -2.2185092149        2.5044956854       -3.1005299935
 H         -0.1467806459        3.1068382209       -1.9081420012
 H          0.3180554794        2.3438013934        1.7569978280
 C          0.8700165248        4.0361625062        0.5834062753
 C          0.0666819398        5.0460035909        1.3451478691
 C          1.4702512629        4.7322709300        1.7663686843
 H          2.2396141881        5.4695854217        1.5930847766
 H          1.6152581580        4.1554650362        2.6683238088
 H         -0.1312742603        6.0008973711        0.8832810918
 H         -0.7412492374        4.6804812680        1.9611174906
 H          1.2386528647        4.3190518877       -0.3930792119
