  62
        -98.93829685
 C         -1.8673613238       -1.3504974809        0.1413706797
 C         -2.1871440891       -0.3388881735       -0.7920906797
 C         -3.5695644342        0.1857944098       -0.7672637678
 C         -4.4412325363       -0.3055091177        0.1320642019
 C         -5.8734718446        0.0938490617        0.3700002337
 C         -6.0023505186        1.4303599176        1.1167776894
 C         -5.0924717550        2.5419467773        0.6014883252
 H         -5.2105528027        3.4023680353        1.2655285935
 H         -4.0528139597        2.2176063157        0.6759091810
 C         -5.3799413696        3.0082161431       -0.8238440950
 H         -6.4161308615        3.3475779620       -0.8879631040
 H         -4.7366971584        3.8705644084       -1.0177342395
 C         -5.1341251033        1.9771864533       -1.9282295385
 H         -5.9523430091        1.2650893911       -1.9936277892
 H         -5.1181471144        2.5179796393       -2.8790811519
 C         -3.8031059458        1.2400377445       -1.8233320834
 H         -3.6031431859        0.7439971831       -2.7807543058
 H         -2.9969348007        1.9736264629       -1.7066577798
 H         -5.7549334058        1.2570108628        2.1670160248
 H         -7.0430309838        1.7549627326        1.0648366721
 H         -6.4161862239        0.1231882872       -0.5700975288
 H         -6.3174219241       -0.6917012102        0.9856468106
 O         -4.0870285157       -1.2741376442        1.0236938473
 C         -2.8211690281       -1.8173625597        1.0521269554
 O         -2.6628704201       -2.7035931222        1.9155433419
 H          0.3902676488        0.4466007833       -0.4299911358
 C          0.8588125307        0.0839745083        0.4729324200
 C          0.4962596131       -1.1588843404        0.9722078910
 C          1.1036491084       -1.6086286025        2.1383375833
 C          2.0498516921       -0.8328575217        2.7861650456
 C          2.4090915817        0.4052504543        2.2846743893
 C          1.8004584850        0.8655985052        1.1244602614
 N          2.1730012514        2.1197882607        0.5938809327
 S          3.7946879628        2.2515461878        0.1851317376
 O          4.5674069380        2.4807539100        1.3801925704
 O          3.8637087795        3.2859066490       -0.8225368822
 C          4.2017242025        0.6592533837       -0.5080917756
 C          4.9493378639       -0.2389146249        0.2255067501
 C          5.1851193699       -1.4991223862       -0.2999878557
 C          4.6667986977       -1.8387883168       -1.5396858209
 C          3.9175971652       -0.9246673358       -2.2644923005
 C          3.6779503679        0.3362202939       -1.7440707005
 H          3.1017647177        1.0725263270       -2.2817221036
 H          3.5145636239       -1.1895258977       -3.2290715203
 H          4.8484063596       -2.8220121912       -1.9445949198
 H          5.7669810192       -2.2128123948        0.2604108110
 H          5.3323100855        0.0661066609        1.1853823387
 H          1.5999707972        2.3913297119       -0.1932106512
 H          3.1503737905        1.0206328722        2.7686405159
 H          2.5131566220       -1.1962748449        3.6906438738
 H          0.8223076880       -2.5704370180        2.5417446798
 C         -0.5032529985       -2.0171553905        0.2347598252
 H         -0.6643697592       -2.9267604861        0.8282618247
 C          0.0555455518       -2.4194328530       -1.1179355875
 C          1.1128440694       -3.4782510173       -1.1792424837
 C         -0.2708778940       -3.7702709409       -1.6758812079
 H         -0.4321537658       -3.8626633306       -2.7394584450
 H         -0.9016583435       -4.4168264938       -1.0828479027
 H          1.9067263557       -3.3689176797       -1.9011579586
 H          1.4227930935       -3.9291793307       -0.2489759105
 H          0.1240474417       -1.5957729282       -1.8156902398
 O         -1.3735890174        0.1385845391       -1.6304270330
