  62
        -98.93579739
 C          1.9790383414        1.0325146443        0.2758562017
 C          2.2666796155       -0.0869040660       -0.5401645621
 C          3.5132076564       -0.8179753771       -0.2338040258
 C          4.2694246655       -0.4287291611        0.8059115341
 C          5.5809455589       -1.0090674246        1.2574457943
 C          6.7588005412       -0.2429071876        0.6318655075
 C          7.1961596063       -0.7452948252       -0.7435881040
 H          7.9381841436       -0.0406669152       -1.1261408308
 H          7.6908590043       -1.7124057184       -0.6314454241
 C          6.0743937888       -0.8870508294       -1.7756795531
 H          5.4118954942       -0.0213830038       -1.7198912641
 H          6.5300429932       -0.8818711108       -2.7678018224
 C          5.2614715418       -2.1796929521       -1.6098225318
 H          5.7889793284       -2.8468040395       -0.9282530252
 H          5.2080880088       -2.6983012897       -2.5694128894
 C          3.8150561988       -1.9890785777       -1.1294048136
 H          3.1599566352       -1.8518466761       -1.9956056678
 H          3.4816922545       -2.9053907292       -0.6301187034
 H          6.4756102891        0.8108614926        0.5669369764
 H          7.6164725708       -0.3090940937        1.3043213654
 H          5.6196995715       -0.8814051126        2.3413555457
 H          5.6342472483       -2.0691895558        1.0280006106
 O          3.9390651723        0.6342364533        1.5895568074
 C          2.8102142608        1.3896573146        1.3419641428
 O          2.6524754873        2.3465778239        2.1261122446
 H         -0.2637149542       -0.5636729352       -0.1595458511
 C         -0.8450545294        0.0463693617        0.5158714059
 C         -0.4540001588        1.3569128326        0.7552345206
 C         -1.2191238337        2.1320469716        1.6183804152
 C         -2.3414281609        1.6036704677        2.2331609468
 C         -2.7262405078        0.2967700581        1.9948684935
 C         -1.9707027802       -0.4843058579        1.1291137483
 N         -2.3620070496       -1.8088333372        0.8654610098
 S         -3.9745492695       -2.0701642422        0.4974246106
 O         -4.7409120555       -2.1361630211        1.7172733456
 O         -3.9939985328       -3.2596959098       -0.3240182654
 C         -4.4706800634       -0.6411328443       -0.4487718117
 C         -5.4284185817        0.2180142404        0.0502096056
 C         -5.7642277198        1.3454871973       -0.6821088287
 C         -5.1368684239        1.5945879582       -1.8927206121
 C         -4.1806027748        0.7188895761       -2.3837377784
 C         -3.8412511484       -0.4102730570       -1.6560922219
 H         -3.1025463402       -1.1114076334       -2.0119419894
 H         -3.6913847281        0.9151850665       -3.3242032309
 H         -5.3926342291        2.4758757963       -2.4592354765
 H         -6.5093509733        2.0267405706       -0.3041549477
 H         -5.8896606189       -0.0130861666        0.9964759594
 H         -1.7556240961       -2.2846239210        0.2131962001
 H         -3.5916572720       -0.1344853116        2.4712600262
 H         -2.9222816463        2.2149700788        2.9065341549
 H         -0.9196326964        3.1503624512        1.8182391236
 C          0.7645749858        1.9260022048        0.0754114025
 H          1.0185276580        2.8662869520        0.5891719605
 C          0.5208842704        2.2676022773       -1.3898305881
 C         -0.6329545255        1.7489183670       -2.1885457953
 C         -0.6041116710        3.1854251234       -1.7680996912
 H         -0.4235917483        3.9444148319       -2.5139273822
 H         -1.2811926179        3.4860121459       -0.9828352561
 H         -0.4492320099        1.5022387405       -3.2231159944
 H         -1.3379007098        1.0933811381       -1.7027559312
 H          1.4545313486        2.3971954741       -1.9284487574
 O          1.5348329662       -0.4794556772       -1.4866518330
