  62
        -98.94391185
 C         -1.6289233035       -1.4119962470       -0.2298942488
 C         -2.7374558608       -0.8235004264        0.4148544454
 C         -3.2127561704        0.4674544430       -0.1177537911
 C         -2.5771892321        1.0040284059       -1.1763044791
 C         -2.8469892739        2.3201227703       -1.8557816933
 C         -2.2948342831        3.5108559290       -1.0569202547
 C         -2.5858862316        3.4670901970        0.4406101183
 H         -2.1418212293        2.5609349482        0.8583960634
 H         -2.0651256865        4.3108914093        0.9023459019
 C         -4.0608710242        3.5572432562        0.8265281690
 H         -4.1051461672        3.6043493675        1.9177576120
 H         -4.4732629400        4.4910702357        0.4373041981
 C         -4.9537786011        2.4029565940        0.3651000007
 H         -5.2075848761        2.4994823039       -0.6870950626
 H         -5.8937393201        2.4792421187        0.9197238904
 C         -4.3955158283        1.0117820337        0.6467381731
 H         -4.1232206858        0.9444771403        1.7065804897
 H         -5.1998636181        0.2785859151        0.5088972042
 H         -1.2077775949        3.5209299103       -1.1727178771
 H         -2.6947347789        4.4321625703       -1.4849477529
 H         -2.3379737628        2.2851818364       -2.8216687190
 H         -3.9101529449        2.4374957067       -2.0432431439
 O         -1.5174162884        0.3930259048       -1.7758745777
 C         -0.9961122689       -0.7944933371       -1.3065189573
 O          0.0059291187       -1.2022632885       -1.9275497015
 O         -3.3079650178       -1.3478671922        1.4122532218
 C         -1.0419624949       -2.7008405212        0.3155141649
 C          0.4046733654       -2.4773950702        0.6833881481
 C          1.4154981675       -3.3944662509        0.4240098854
 C          2.7285257004       -3.1046639323        0.7548401755
 C          3.0653314459       -1.8897910839        1.3234038207
 C          2.0589289288       -0.9712185844        1.5972061386
 C          0.7416687964       -1.2840457948        1.3094046650
 H         -0.0271691861       -0.5592945898        1.5342813450
 N          2.3390389395        0.3001336436        2.1435901901
 S          2.0132889102        1.6127804857        1.1475335826
 O          2.4293913127        2.7734006638        1.9065079252
 O          0.6380130053        1.5844621936        0.7268653254
 C          3.1222114321        1.3842901033       -0.2312963156
 C          2.7842581466        0.5037019533       -1.2391633232
 C          3.6999088594        0.2756041589       -2.2559787412
 C          4.9259425805        0.9220374607       -2.2473424161
 C          5.2487389837        1.8040472494       -1.2266141432
 C          4.3421769991        2.0338095482       -0.2051145516
 H          4.5462737594        2.7118706057        0.6079818772
 H          6.2014642028        2.3086189669       -1.2223086612
 H          5.6320892592        0.7377276214       -3.0415691872
 H          3.4395901518       -0.4111350217       -3.0454458580
 H          1.8228089821        0.0130081382       -1.2340143384
 H          3.2811174241        0.3886027683        2.5009893859
 H          4.0932291229       -1.6503488270        1.5510068669
 H          3.5029396528       -3.8266310115        0.5455750483
 H          1.1762905166       -4.3343703069       -0.0460900676
 H         -1.6078084442       -2.9179681273        1.2341506592
 C         -1.2440855058       -3.8377117225       -0.6647070326
 C         -1.4083965191       -5.2441193812       -0.1727828016
 C         -2.5845350238       -4.5038205883       -0.7325334816
 H         -2.9680492478       -4.7940210747       -1.6991143872
 H         -3.3444350074       -4.1538949207       -0.0490248463
 H         -0.9866056462       -6.0475816528       -0.7576009717
 H         -1.3760929418       -5.4081100425        0.8937222259
 H         -0.7168355761       -3.6773121577       -1.5985658499
