  62
        -98.93556844
 C          1.2401390043        1.4028314543       -0.5879691122
 C          2.4111179206        1.4762740108        0.2046943973
 C          3.4323294891        0.4326384314        0.0066593684
 C          3.2120733168       -0.5228434863       -0.9137192959
 C          4.0792576522       -1.6984227425       -1.2889257170
 C          5.5883775379       -1.4402875359       -1.4143893405
 C          6.4103086865       -2.0643203709       -0.2850999825
 H          5.9867114895       -3.0426003022       -0.0479757526
 H          7.4288789182       -2.2282406651       -0.6439194613
 C          6.4996029956       -1.2308060855        0.9919502483
 H          7.1388116902       -0.3633747399        0.8138248287
 H          6.9876371432       -1.8440127636        1.7531501759
 C          5.1610516857       -0.7374222632        1.5446941049
 H          4.4038779393       -1.5178600910        1.4679233767
 H          5.2944415592       -0.5286009223        2.6084339505
 C          4.6558231961        0.5490731415        0.8739795020
 H          4.3811712154        1.2803006163        1.6406150680
 H          5.4609527271        1.0083695127        0.2933563370
 H          5.7773394840       -0.3697709786       -1.4751066629
 H          5.9219934086       -1.8815759079       -2.3550250660
 H          3.8954146738       -2.5004026660       -0.5687246135
 H          3.6818098615       -2.0475275259       -2.2450259076
 O          2.0734901533       -0.5562145591       -1.6589478990
 C          1.0517669230        0.3708961901       -1.5074838993
 O          0.0785209823        0.1602270347       -2.2533314692
 H         -0.7579744016       -0.0051477105        0.2549240846
 C         -1.1137469399        0.7364032167        0.9506338832
 C         -0.7174300042        2.0580366044        0.8079367666
 C         -1.1606069034        2.9925557862        1.7371143335
 C         -1.9896001078        2.6085914481        2.7763381890
 C         -2.3822313275        1.2899683998        2.9150267934
 C         -1.9280508958        0.3422139921        2.0024026479
 N         -2.2617342694       -1.0044993368        2.1621760583
 S         -2.2022260298       -2.1590378036        0.9625916092
 O         -2.7643318065       -3.3311154909        1.6011245231
 O         -0.8599531285       -2.2978340981        0.4565028210
 C         -3.3344617427       -1.5965149635       -0.2944745582
 C         -4.6833466020       -1.7049693508       -0.0081654097
 C         -5.6082120524       -1.2718869810       -0.9423460781
 C         -5.1711204130       -0.7404788354       -2.1470853055
 C         -3.8166039343       -0.6432467335       -2.4197315432
 C         -2.8825624088       -1.0705169230       -1.4864846381
 H         -1.8245117255       -0.9872077725       -1.6823508853
 H         -3.4681531149       -0.2334519805       -3.3540995498
 H         -5.8888835533       -0.4031056079       -2.8780703444
 H         -6.6625735663       -1.3506571891       -0.7317859030
 H         -4.9800326594       -2.1442857464        0.9302829197
 H         -2.9352091318       -1.2142439696        2.8818921603
 H         -3.0172882515        0.9877512872        3.7332832556
 H         -2.3284773708        3.3424805343        3.4915401167
 H         -0.8336101460        4.0185560844        1.6552198653
 C          0.1854788126        2.4639623199       -0.3318220275
 H          0.7485439123        3.3507573255        0.0023007036
 C         -0.5928130825        2.8602190879       -1.5782006912
 C         -2.0087038302        2.4437946819       -1.8241087523
 C         -1.6976578710        3.8722606630       -1.5004932998
 H         -1.7735048923        4.6089498284       -2.2857445498
 H         -1.9796626882        4.2344476415       -0.5242127631
 H         -2.4970620478        1.8405251870       -1.0741858834
 H         -2.2839647836        2.1842629172       -2.8341047148
 H          0.0498791526        2.9098970698       -2.4511755762
 O          2.5983181547        2.3916209913        1.0532157689
