  62
        -98.94440820
 C         -1.9157425538       -0.8099901929        0.0135240898
 C         -2.4214060529        0.4957735637        0.2213315830
 C         -3.8363060846        0.5730875463        0.6082680174
 C         -4.5517102607       -0.5556257025        0.7648079284
 C         -5.9961797343       -0.6394138348        1.1779440350
 C         -6.9874387691       -0.4641822119        0.0193901351
 C         -7.1098518945        0.9608090831       -0.5216522604
 H         -7.9865888002        0.9823521856       -1.1720157067
 H         -7.3004660513        1.6468692076        0.3042072425
 C         -5.8910079812        1.4416188687       -1.3215510261
 H         -5.2846852663        0.5815667851       -1.6151338155
 H         -6.2268102498        1.9247503899       -2.2419695163
 C         -5.0025206801        2.4430188472       -0.5832629252
 H         -4.1531804803        2.6872107042       -1.2265836207
 H         -5.5611476661        3.3637616538       -0.4004686534
 C         -4.4509385000        1.9322848573        0.7543108423
 H         -3.6658572457        2.6166479533        1.0856245965
 H         -5.2408094081        1.9155723083        1.5050566461
 H         -6.7003153890       -1.1380729275       -0.7910402814
 H         -7.9694687754       -0.7781679286        0.3805109182
 H         -6.1395837951       -1.6339941528        1.6056767050
 H         -6.2008340527        0.1035610224        1.9492408125
 O         -4.0192627763       -1.7928716363        0.5783377398
 C         -2.7008852536       -1.9502030253        0.1829693976
 O         -2.3477278804       -3.1370374930        0.0284847015
 O         -1.7320277540        1.5410941399        0.0958750563
 C         -0.4734295863       -1.0043741917       -0.4192313087
 C          0.4581166048       -0.3560914807        0.5753541089
 C          0.2985053509       -0.6474911074        1.9284220106
 C          1.1140109344       -0.0657321746        2.8783510571
 C          2.1189314158        0.8076863711        2.4993102519
 C          2.2944871760        1.0975125577        1.1526005095
 C          1.4704643583        0.5119445214        0.1993358195
 H          1.6215288169        0.7708461797       -0.8347229457
 N          3.3006900440        1.9868700965        0.7406890469
 S          4.2829589304        1.5969759098       -0.5544598234
 O          5.4224930020        2.4777426160       -0.4228365462
 O          3.5484105852        1.6870283475       -1.7896483709
 C          4.7739401556       -0.0880634158       -0.2393807792
 C          4.1205876835       -1.1239098511       -0.8747821697
 C          4.4676344179       -2.4278580527       -0.5575747722
 C          5.4553386871       -2.6717183724        0.3838592879
 C          6.1070827321       -1.6192729989        1.0090884891
 C          5.7616304721       -0.3141523424        0.6996790328
 H          6.2509366896        0.5314128494        1.1553515442
 H          6.8789621728       -1.8125857468        1.7364961275
 H          5.7199116641       -3.6883047979        0.6288138001
 H          3.9634781914       -3.2475256933       -1.0444995282
 H          3.3616817228       -0.8948335081       -1.6043566294
 H          3.8440436478        2.3772977167        1.4966934086
 H          2.7527546813        1.2702410940        3.2405506704
 H          0.9694847288       -0.2943745947        3.9235058321
 H         -0.4876626545       -1.3290902106        2.2243617382
 H         -0.2954764436       -2.0896603193       -0.3995665819
 C         -0.2892295811       -0.5070063834       -1.8377223342
 C          0.7071042530       -1.1607797842       -2.7453677198
 C         -0.7603742551       -1.3611623838       -2.9747060220
 H         -1.2237205238       -0.8806209621       -3.8233806324
 H         -1.1899065672       -2.3213789844       -2.7274597146
 H          1.2602606058       -0.5414646524       -3.4363381162
 H          1.2657992449       -1.9962675041       -2.3507426373
 H         -0.4379452600        0.5632693196       -1.9290025572
