  62
        -98.93781188
 C         -2.5261770318       -1.0652368361        0.2763262067
 C         -2.5957277155       -0.1883126185       -0.8308281605
 C         -3.0720788776        1.1807892195       -0.5570751828
 C         -3.3904499461        1.5301444231        0.7003332317
 C         -3.7933854516        2.8887864007        1.2011733640
 C         -2.5599498785        3.6571696070        1.7064430845
 C         -1.8178061581        4.4615409146        0.6400464411
 H         -0.9053795970        4.8469431898        1.1008196577
 H         -2.4276433883        5.3194507818        0.3478460530
 C         -1.4321326312        3.6853892327       -0.6222726561
 H         -1.0206663000        2.7103506453       -0.3496293721
 H         -0.6264098980        4.2327318284       -1.1171815056
 C         -2.5989588473        3.5217663511       -1.6079255279
 H         -2.2726922230        3.8310810044       -2.6033032700
 H         -3.4019141620        4.2008038327       -1.3204210339
 C         -3.1537477501        2.0960706557       -1.7483940454
 H         -2.6044689892        1.5733895580       -2.5377405865
 H         -4.1976080028        2.1507611302       -2.0754506862
 H         -1.8752546647        2.9340980211        2.1578450748
 H         -2.8734714270        4.3473989749        2.4923352273
 H         -4.4701874118        2.7244729115        2.0420871693
 H         -4.3171549613        3.4466654119        0.4308485795
 O         -3.3204941812        0.6545511471        1.7391022691
 C         -2.8811887817       -0.6411066360        1.5612463920
 O         -2.8579318715       -1.3211214868        2.6063510102
 O         -2.2689494623       -0.5020202283       -2.0093692431
 C         -1.9827848124       -2.4867737559        0.1994284929
 C         -0.4763084114       -2.4171737938        0.2779412968
 C          0.2194600160       -2.9424860166        1.3601072506
 C          1.5904374092       -2.7798599670        1.4631373300
 C          2.2906836473       -2.0700616959        0.5032118105
 C          1.6015421213       -1.5410890292       -0.5792577777
 C          0.2368262575       -1.7384305250       -0.7001290934
 H         -0.2891996730       -1.3110129941       -1.5411265371
 N          2.2954465625       -0.7384880409       -1.5211000652
 S          2.5854153208        0.8121339160       -0.9149921854
 O          1.5477326769        1.2230591553        0.0046624334
 O          2.7938440503        1.6564017119       -2.0714383990
 C          4.1267425282        0.6091612811       -0.0489062614
 C          5.2493699474        0.2913419773       -0.7886393841
 C          6.4549869485        0.1106681334       -0.1301816701
 C          6.5167309966        0.2506984120        1.2485969580
 C          5.3809128556        0.5715478214        1.9762341788
 C          4.1712492335        0.7527066819        1.3234680201
 H          3.2603315543        0.9963382462        1.8468045746
 H          5.4304985163        0.6792039972        3.0478743190
 H          7.4557902709        0.1088700464        1.7598080149
 H          7.3405247579       -0.1391813690       -0.6919512945
 H          5.1542130324        0.1968376480       -1.8574413724
 H          1.7778828093       -0.6415184007       -2.3855635093
 H          3.3543370249       -1.9170979387        0.5888326570
 H          2.1164818435       -3.1940551303        2.3096048341
 H         -0.3272320490       -3.4563721935        2.1373770897
 H         -2.3446580108       -2.9943346548        1.1035059689
 C         -2.4533060577       -3.2675957108       -1.0102344691
 C         -2.3961731677       -4.7642231613       -0.9707151281
 C         -3.7195325355       -4.0627241333       -0.9208344555
 H         -4.3618862298       -4.1042484323       -1.7875282029
 H         -4.2542689650       -4.0469744577        0.0178325444
 H         -2.1277201423       -5.2921795419       -1.8727181571
 H         -2.0345792378       -5.2270273271       -0.0650040118
 H         -2.2417183328       -2.7787361255       -1.9515282614
