  62
        -98.94803362
 C          1.2661951607        1.0481932649        0.0078492267
 C          1.6225983666       -0.0457567041        0.8313194868
 C          2.6582712069       -0.9412520265        0.3019734201
 C          3.1502956822       -0.7187928103       -0.9304295264
 C          4.2352836197       -1.5280576196       -1.5787651312
 C          5.6223764870       -0.9420217530       -1.2798771970
 C          5.8620968136       -0.6470039997        0.2007354406
 H          6.8815886112       -0.2671849413        0.2954760885
 H          5.1891378755        0.1530605327        0.5171343414
 C          5.6792639525       -1.8577872109        1.1264116310
 H          5.7193725933       -2.7789368079        0.5439388027
 H          6.5093614321       -1.8856890567        1.8353982911
 C          4.3905316874       -1.8364737097        1.9502761029
 H          4.3007051867       -0.8758480316        2.4635312711
 H          4.4640962352       -2.6124971406        2.7167870768
 C          3.0942955920       -2.0884154735        1.1693358622
 H          2.2897722462       -2.2370035452        1.8960273183
 H          3.1889473967       -3.0021813968        0.5783220024
 H          5.7301710622       -0.0088592378       -1.8375421483
 H          6.3773284400       -1.6428856547       -1.6407736825
 H          4.1764293786       -2.5549026093       -1.2223233235
 H          4.0701443080       -1.5200812210       -2.6576724415
 O          2.7406414145        0.3077437007       -1.7184382359
 C          1.7901579197        1.2158224307       -1.2735618786
 O          1.5046325902        2.1049570134       -2.0981041720
 O          1.0945964234       -0.2638070925        1.9559989474
 C          0.2099148673        2.0209391358        0.4958839581
 C         -1.0251073836        1.9469663421       -0.3693227388
 C         -1.7989566274        3.0545801244       -0.6934632927
 C         -2.9395193921        2.9087289439       -1.4642872074
 C         -3.3490581436        1.6626344030       -1.9033122158
 C         -2.5845482120        0.5477347804       -1.5792685432
 C         -1.4324906133        0.7013495685       -0.8258692700
 H         -0.8318774970       -0.1684635288       -0.6099166438
 N         -2.9573961260       -0.7397205058       -1.9935564513
 S         -2.6802513333       -2.0393623373       -0.9773991992
 O         -1.2847894628       -2.4018574780       -0.9888661244
 O         -3.5972757396       -3.0564053841       -1.4478912163
 C         -3.1905787448       -1.4712664459        0.6352361981
 C         -2.2662166560       -1.1997279489        1.6224117615
 C         -2.7131945943       -0.7058044910        2.8385858478
 C         -4.0664097402       -0.4940842813        3.0473883512
 C         -4.9845968531       -0.7814097585        2.0482352936
 C         -4.5444125769       -1.2713698231        0.8304367061
 H         -5.2268884937       -1.5175573329        0.0332439234
 H         -6.0377435767       -0.6218005866        2.2140712314
 H         -4.4062690549       -0.1059406731        3.9945856585
 H         -1.9903743512       -0.4855962025        3.6081437173
 H         -1.2153021165       -1.3644570833        1.4418910018
 H         -3.8555927662       -0.8001237684       -2.4497634930
 H         -4.2422174258        1.5515445214       -2.4985194470
 H         -3.5248623936        3.7788927673       -1.7194369397
 H         -1.5043943004        4.0326996664       -0.3503603157
 H         -0.0696616570        1.6657878485        1.5001791024
 C          0.7798713115        3.4191397227        0.6158063799
 C          0.2778723369        4.3552209757        1.6733424557
 C          1.6420824273        3.7484330146        1.7966149099
 H          2.5063366654        4.3775322783        1.6451005603
 H          1.7927372712        2.9709849825        2.5315717996
 H          0.2071125178        5.4066412568        1.4387336118
 H         -0.4960835908        3.9954389900        2.3342008414
 H          1.0667314368        3.8332236272       -0.3441286210
