  62
        -98.93979820
 C          2.2030804523        0.7996549602        0.1280392000
 C          2.4445829431       -0.3231844171        0.9546022774
 C          3.0980971285       -1.4692861948        0.3092975297
 C          3.3853603905       -1.4070505891       -1.0040677742
 C          4.0935754545       -2.4803989310       -1.7777392756
 C          5.6122703548       -2.2563625784       -1.7750577437
 C          6.1954969427       -1.9953148113       -0.3863060070
 H          7.2755204153       -1.8829783277       -0.5030554716
 H          5.8123766904       -1.0431682114       -0.0120644557
 C          5.9042388515       -3.0975046101        0.6417372824
 H          5.6079116747       -4.0133316722        0.1291282004
 H          6.8226488749       -3.3159379630        1.1906049313
 C          4.8418909795       -2.7314289989        1.6798448785
 H          5.0877139871       -1.7666603844        2.1307894060
 H          4.8711267166       -3.4809451564        2.4752409502
 C          3.3987011765       -2.6686998370        1.1639371447
 H          3.1579634412       -3.5914061465        0.6320461616
 H          2.7386762147       -2.5901402018        2.0329196423
 H          6.0911334005       -3.1335350470       -2.2139350917
 H          5.8359696752       -1.3944881373       -2.4079121971
 H          3.8583276278       -3.4502347632       -1.3436791384
 H          3.7334295756       -2.4555734305       -2.8075378155
 O          3.0984966330       -0.3279329297       -1.7756102037
 C          2.5056863565        0.8034765337       -1.2340802840
 O          2.3039736010        1.7183734009       -2.0535326446
 H         -0.3990375356        0.2383327454        0.5253099170
 C         -0.7009486617        1.1779297887        0.0780547043
 C          0.1920374896        2.2434395443        0.0898655744
 C         -0.2089287557        3.4478559562       -0.4705749771
 C         -1.4634396427        3.5683749887       -1.0447143996
 C         -2.3411085525        2.5010681163       -1.0710938031
 C         -1.9549912835        1.2938255761       -0.5013650170
 N         -2.8312935325        0.1885896727       -0.5322656703
 S         -4.4139858355        0.4596344176       -0.0007714276
 O         -5.1328381576        1.1559775973       -1.0372284778
 O         -4.3996486800        1.0996992029        1.2965733284
 C         -5.0165182142       -1.2111189805        0.1355590111
 C         -4.9784574286       -1.8462139330        1.3622551634
 C         -5.4266167399       -3.1546490118        1.4535308186
 C         -5.8991648033       -3.8026127398        0.3221506109
 C         -5.9309053339       -3.1516383840       -0.9022529973
 C         -5.4857222253       -1.8430352760       -1.0002315229
 H         -5.4998700789       -1.2945477844       -1.9274522618
 H         -6.3014055898       -3.6583818716       -1.7786901257
 H         -6.2473299722       -4.8207313560        0.3962578535
 H         -5.4056050437       -3.6620621147        2.4046138658
 H         -4.6111166994       -1.3012979410        2.2173577740
 H         -2.4391363424       -0.6035508794       -0.0398694122
 H         -3.3199984787        2.5876153940       -1.5136733001
 H         -1.7613045968        4.5093765320       -1.4824071522
 H          0.4603030541        4.2922072742       -0.4649101258
 C          1.5407513453        2.0251159823        0.7319569542
 H          1.3724844760        1.7739496670        1.7900853347
 C          2.4585894764        3.2260924543        0.6579879555
 C          2.3177726907        4.3410592495        1.6494787809
 C          3.4926940429        3.4143484053        1.7258334169
 H          4.4652084373        3.7875076411        1.4419193387
 H          3.5203560895        2.6872494140        2.5244435311
 H          1.5475614471        4.2471640392        2.4001414304
 H          2.4853923126        5.3535336204        1.3146506357
 H          2.7390488916        3.4755315315       -0.3589644780
 O          2.1205617434       -0.3679094516        2.1731500435
