  62
        -98.93422901
 C          2.5102350187        0.7285135427        0.9777112554
 C          3.5642934016        1.0971063843        0.1051348429
 C          4.8088550905        0.3207605280        0.2430943563
 C          4.8821859484       -0.6672693821        1.1517755500
 C          6.0658412643       -1.5683158394        1.3501769074
 C          5.9556062762       -2.8306594451        0.4837646084
 C          5.6195638647       -2.5477765770       -0.9805117649
 H          5.5991185001       -3.5079283886       -1.5007521541
 H          4.6120198865       -2.1294272941       -1.0410557777
 C          6.6032959077       -1.6044707479       -1.6868925997
 H          7.5362996246       -1.5532580074       -1.1244700743
 H          6.8395963493       -2.0176039779       -2.6698110093
 C          6.0714237862       -0.1884518905       -1.9154918149
 H          6.7480709868        0.3213953471       -2.6065716248
 H          5.0911201285       -0.2389243041       -2.3962049445
 C          5.9498898359        0.6891995928       -0.6633768335
 H          5.7507520467        1.7126663488       -0.9946002023
 H          6.8946973963        0.6824657430       -0.1162008590
 H          6.9004477981       -3.3739486813        0.5436102809
 H          5.1701838306       -3.4672636683        0.8976768767
 H          6.9753768702       -1.0240136484        1.1035890590
 H          6.1019954377       -1.8616450890        2.4006953217
 O          3.8509088859       -0.9909407387        1.9735313147
 C          2.6480328984       -0.3118239461        1.9010116378
 O          1.7858583585       -0.7122567938        2.7096350151
 O          3.4942989246        2.0178945157       -0.7479146902
 C          1.1537679288        1.4142705040        0.9818134996
 C          0.2213919168        0.7637826483       -0.0085065434
 C          0.6018831323        0.5575762129       -1.3307098628
 C         -0.2699632376       -0.0355267243       -2.2256675690
 C         -1.5318136546       -0.4370776379       -1.8239229212
 C         -1.9218407592       -0.2370229675       -0.5065709576
 C         -1.0460057994        0.3649198175        0.3893389200
 H         -1.3474701840        0.5082001871        1.4184034642
 N         -3.1947494514       -0.6606380772       -0.0846046365
 S         -4.4984720856       -0.3237417714       -1.1072814781
 O         -4.5438935854       -1.3319510004       -2.1361435539
 O         -4.4225716282        1.0449395866       -1.5666524827
 C         -5.8703792097       -0.5339907300        0.0091739213
 C         -6.4235803325        0.5766275845        0.6177516801
 C         -7.4748309820        0.4009268804        1.5038103704
 C         -7.9494605449       -0.8752467542        1.7670359419
 C         -7.3834573083       -1.9801988240        1.1482957652
 C         -6.3330793455       -1.8118085260        0.2602665098
 H         -5.8686507063       -2.6392900499       -0.2501419321
 H         -7.7571739453       -2.9702180685        1.3541481149
 H         -8.7677659323       -1.0091114945        2.4567929252
 H         -7.9189931207        1.2579933652        1.9839486124
 H         -6.0285518157        1.5505405141        0.3764263990
 H         -3.3950549402       -0.3794300997        0.8656623080
 H         -2.2203360672       -0.8965334988       -2.5147275059
 H          0.0353745003       -0.1871833808       -3.2504456436
 H          1.5825282123        0.8758591973       -1.6505657487
 H          0.7449544828        1.2292978754        1.9879286642
 C          1.2454572984        2.9245393501        0.8071733675
 C          0.7792341958        3.6529000418       -0.4135040464
 C         -0.0000236333        3.7595167354        0.8605690710
 H          0.0214195333        4.6890279323        1.4089184553
 H         -0.9454342975        3.2393605398        0.9068508702
 H          1.3627980898        4.4989628604       -0.7426102086
 H          0.3544209579        3.0795555465       -1.2224619682
 H          2.1222026351        3.3323899850        1.2996473380
