  62
        -98.94357006
 C          0.5008686985        1.8152382324       -0.1165655772
 C          1.6638022557        1.8194424325        0.6833908479
 C          2.7855801397        0.9742045407        0.2323898742
 C          2.6394183064        0.2568184026       -0.8969336906
 C          3.6515481218       -0.6539702027       -1.5400903688
 C          3.7822371220       -2.0197733244       -0.8385627459
 C          3.6325206615       -1.9873587036        0.6818272446
 H          3.5338444363       -3.0186816958        1.0333892055
 H          2.7049675773       -1.4752815458        0.9509789641
 C          4.8034451497       -1.3526418725        1.4290433477
 H          5.6923505341       -1.9719086635        1.2840447792
 H          4.5597028284       -1.3644851647        2.4946612191
 C          5.1515146110        0.0792928764        1.0258880336
 H          5.5915249089        0.0983565671        0.0326154709
 H          5.9224306370        0.4331915117        1.7170494594
 C          3.9988435333        1.0749426600        1.1239811277
 H          4.4007809830        2.0853928617        0.9765337918
 H          3.6086428877        1.0643746657        2.1483926453
 H          4.7497606336       -2.4535240691       -1.0964943503
 H          3.0057343908       -2.6800242743       -1.2304980829
 H          4.6112645594       -0.1456027511       -1.5842941195
 H          3.3184770257       -0.8181760909       -2.5668162775
 O          1.4854652863        0.2585404216       -1.6215615296
 C          0.3889044463        1.0172648032       -1.2541828278
 O         -0.5969311517        0.9041412311       -2.0056266216
 O          1.7696157121        2.5082195364        1.7365838841
 C         -0.6759043265        2.6824138402        0.2831367043
 C         -1.9211319821        1.8563800968        0.4902261125
 C         -3.1934241221        2.3261098583        0.1849331279
 C         -4.3074557008        1.5404105120        0.4221550824
 C         -4.1794225567        0.2709403127        0.9552172604
 C         -2.9116032527       -0.2065883782        1.2665736638
 C         -1.7998121248        0.5891857145        1.0442108907
 H         -0.8230802665        0.2074666798        1.3029575402
 N         -2.7351461215       -1.4892487746        1.8116634960
 S         -1.4458688728       -2.4250632328        1.3193007700
 O         -1.8254935545       -3.7727685007        1.6946317503
 O         -0.2179803913       -1.9445299022        1.9037316299
 C         -1.3631382095       -2.3214330332       -0.4591657952
 C         -2.5211750342       -2.2599407973       -1.2074017917
 C         -2.4233427598       -2.2338383647       -2.5885901317
 C         -1.1795126574       -2.2840974414       -3.1964727764
 C         -0.0274722735       -2.3589299115       -2.4320326770
 C         -0.1191046326       -2.3748022133       -1.0505517493
 H          0.7514863720       -2.4103252391       -0.4145492411
 H          0.9410577625       -2.3876809251       -2.9052067843
 H         -1.1059173515       -2.2570473839       -4.2721799310
 H         -3.3181037436       -2.1682845189       -3.1865212020
 H         -3.4805150467       -2.2231158621       -0.7178050360
 H         -3.5779543601       -2.0378278288        1.9011173521
 H         -5.0480469830       -0.3444208184        1.1340500853
 H         -5.2889811711        1.9187026907        0.1808583759
 H         -3.3118929499        3.3096497381       -0.2391816813
 H         -0.3977142483        3.1249493655        1.2523956323
 C         -0.8639957481        3.7995525913       -0.7247054289
 C         -1.3440597840        5.1504086071       -0.2872651692
 C          0.0838375245        4.9599499531       -0.6988149501
 H          0.4142144896        5.3787337105       -1.6374536878
 H          0.8433659527        4.9588536571        0.0696558253
 H         -1.9947042425        5.7049673992       -0.9466807364
 H         -1.5508501236        5.2933965434        0.7626876014
 H         -1.1779540937        3.4314423713       -1.6950517921
