  62
        -98.93904151
 C         -1.9073516000       -0.2392481610       -0.0088324298
 C         -2.9660450500       -1.0033838812        0.5339604100
 C         -4.2757482401       -0.3377454714        0.6398601896
 C         -4.4019184302        0.9383410486        0.2300030796
 C         -5.5893718604        1.8782923484        0.2539715393
 C         -7.0036341804        1.3476717081        0.4753006589
 C         -7.5423884599        0.4688395480       -0.6528875512
 H         -8.5135281699        0.0755439278       -0.3444220414
 H         -7.7019359598        1.0943061979       -1.5348971413
 C         -6.6451699796       -0.6940337119       -1.0694912309
 H         -5.7106759296       -0.3072427217       -1.4813708207
 H         -7.1511456093       -1.2342689020       -1.8743565211
 C         -6.3228202197       -1.6998991418        0.0339426392
 H         -7.2495053698       -2.0640753619        0.4815803889
 H         -5.8205524094       -2.5505652917       -0.4344106107
 C         -5.4054738501       -1.1819689316        1.1556183794
 H         -5.9707956304       -0.6451184617        1.9135596892
 H         -4.9447724500       -2.0472629915        1.6408908295
 H         -7.6546760806        2.2230268580        0.5502817487
 H         -7.0667193305        0.8269773081        1.4262116389
 H         -5.3698339808        2.6139511284        1.0357589293
 H         -5.5557095203        2.4212703883       -0.6959473407
 O         -3.3440311002        1.6418748588       -0.2710731702
 C         -2.0836373501        1.0828006190       -0.4117180198
 O         -1.2347910201        1.8536235991       -0.8977334696
 H          1.6942902801        0.5574982397       -0.9684237089
 C          1.5383060299        0.5600043797        0.0965792511
 C          0.4670281598       -0.1137602005        0.6595817309
 C          0.2925800395       -0.0564001605        2.0411379208
 C          1.1610312291        0.6669201797        2.8337443410
 C          2.2289669292        1.3416408398        2.2669468713
 C          2.4134722895        1.2908457898        0.8910480013
 N          3.4743967796        1.9888840100        0.2928400016
 S          4.4223662800        1.2892075202       -0.8901420082
 O          5.5554631699        2.1789990804       -1.0162445479
 O          3.6548664103        1.0577723700       -2.0862593784
 C          4.9502975401       -0.2584516497       -0.1779394380
 C          6.0760869899       -0.2616980195        0.6229366523
 C          6.4632597599       -1.4439277394        1.2321744024
 C          5.7157408702       -2.5958747695        1.0388153923
 C          4.5875431404       -2.5755045298        0.2335555920
 C          4.1971804103       -1.3968297899       -0.3829074082
 H          3.3289450005       -1.3455214400       -1.0186954784
 H          4.0081214406       -3.4722926099        0.0823443618
 H          6.0146977703       -3.5158451395        1.5159840023
 H          7.3427149898       -1.4637070792        1.8554264626
 H          6.6331449497        0.6540208506        0.7377346424
 H          4.0437879893        2.5149810001        0.9393613617
 H          2.9049575889        1.9152727700        2.8827686614
 H          1.0095025889        0.7061416697        3.9018764610
 H         -0.5452066305       -0.5801231007        2.4808768306
 C         -0.5399005598       -0.8840621907       -0.1566149094
 H         -0.6452259397       -1.8865445807        0.2830618906
 C         -0.1736991194       -1.0311741007       -1.6175003893
 C          0.7716096909       -2.1117730905       -2.0466545890
 C         -0.6863060390       -2.2154156508       -2.3786869394
 H         -0.9960378588       -2.0741754109       -3.4033455895
 H         -1.2847719290       -2.9328212409       -1.8362965395
 H          1.1572810608       -2.7678597404       -1.2807062689
 H          1.4678382211       -1.8994990104       -2.8447650488
 H         -0.1381228494       -0.0836219007       -2.1438143293
 O         -2.8232331598       -2.1931125611        0.9245722901
