  62
        -98.93725775
 C          2.2652496576        1.0701306420       -0.5064571031
 C          3.0179811296        0.0509359447       -1.1423137088
 C          4.3941895041       -0.1209216492       -0.6513350591
 C          4.8649634978        0.6625733421        0.3342834912
 C          6.2482087933        0.6140200743        0.9242634766
 C          6.4233954602       -0.4475916603        2.0189231186
 C          6.4606182575       -1.8937685829        1.5231356472
 H          7.1995126100       -1.9841578021        0.7262771594
 H          6.8043731642       -2.5088763953        2.3571523291
 C          5.1074704671       -2.4320224829        1.0375364289
 H          4.9409703347       -3.4275745142        1.4549666287
 H          4.3053536445       -1.7909137811        1.4107097139
 C          4.9815070759       -2.5505835208       -0.4812979904
 H          3.9749296048       -2.9056657171       -0.7152508989
 H          5.6941361340       -3.2909748587       -0.8513408517
 C          5.2073756121       -1.2353282681       -1.2383127315
 H          6.2657659379       -0.9761792758       -1.2357054036
 H          4.8822603361       -1.3748474171       -2.2721407400
 H          7.3661544120       -0.2362948606        2.5289465109
 H          5.6183108506       -0.3326878481        2.7484806534
 H          6.9789092406        0.4462936375        0.1324977497
 H          6.4321881646        1.5963532157        1.3647621737
 O          4.1118919800        1.6358380009        0.9146809170
 C          2.8023492539        1.8475934635        0.5231821075
 O          2.2224561824        2.7573175064        1.1527885988
 H         -1.3287780206        2.2037583052        0.5227102173
 C         -1.2227470107        1.1269069588        0.5326454893
 C         -0.1476941032        0.5375468246       -0.1161948477
 C         -0.0257409814       -0.8482869692       -0.0785365194
 C         -0.9655327227       -1.6206284650        0.5802193818
 C         -2.0528476157       -1.0285438441        1.2006111706
 C         -2.1751011678        0.3529118456        1.1777509098
 N         -3.3340270526        0.9450315879        1.7563164986
 S         -4.5338162060        1.1511200975        0.5839081827
 O         -4.0046657129        1.8180779923       -0.5869211398
 O         -5.6306040484        1.8210172373        1.2457358014
 C         -4.9670116819       -0.5250720407        0.1882118608
 C         -4.3970355002       -1.1219769427       -0.9189820930
 C         -4.6988396581       -2.4465082055       -1.1929110177
 C         -5.5584901890       -3.1452293324       -0.3587425305
 C         -6.1241612104       -2.5295661000        0.7480667162
 C         -5.8248686866       -1.2061275155        1.0293672196
 H         -6.2408777446       -0.6852730371        1.8759517338
 H         -6.7932250022       -3.0768318238        1.3924358082
 H         -5.7894207292       -4.1766211153       -0.5741172957
 H         -4.2586728532       -2.9267312702       -2.0520029308
 H         -3.7339096873       -0.5416854474       -1.5409841954
 H         -3.1417299056        1.8490894708        2.1687870321
 H         -2.7976042771       -1.6203519100        1.7072731328
 H         -0.8570831624       -2.6940214600        0.6002345773
 H          0.8081000658       -1.3111744323       -0.5843540066
 C          0.8282633449        1.3971390050       -0.8747800708
 H          0.6774154652        2.4368129309       -0.5413456978
 C          0.5655093611        1.3729525032       -2.3755597030
 C         -0.2290940617        0.3116376686       -3.0686269836
 C         -0.8067866390        1.6827547950       -2.8996393010
 H         -0.8954815559        2.3198818653       -3.7670111571
 H         -1.6065550680        1.8100180664       -2.1826332941
 H          0.1029342662        0.0017842433       -4.0475934515
 H         -0.6384677025       -0.4905453212       -2.4756132085
 H          1.4004746073        1.7858191666       -2.9331172066
 O          2.5881582210       -0.6840413378       -2.0656118777
