  62
        -98.94395755
 C         -1.3788084210       -1.5899171018       -0.6157385900
 C         -2.6066239506       -1.5558429255        0.0937622827
 C         -3.5846170894       -0.5474199208       -0.3297065947
 C         -3.2799537253        0.2689628493       -1.3544757038
 C         -4.1486926135        1.3886507380       -1.8482767340
 C         -3.8018713570        2.7054706661       -1.1399679498
 C         -3.7346317884        2.5900494872        0.3831256719
 H         -2.8827982672        1.9601852573        0.6529443267
 H         -3.5218358678        3.5880510394        0.7733731285
 C         -5.0103641471        2.0428764499        1.0393176426
 H         -5.2420948505        2.6552048002        1.9133483983
 H         -5.8491354514        2.1336882393        0.3480608342
 C         -4.9069726390        0.5955455945        1.5243573922
 H         -4.0095056058        0.4795646311        2.1378193200
 H         -5.7700638306        0.3886570626        2.1628315095
 C         -4.8807555123       -0.4754851948        0.4268033226
 H         -5.0000621894       -1.4496559265        0.9101151949
 H         -5.7191631358       -0.3241707265       -0.2561312879
 H         -2.8245293825        3.0437642869       -1.4933768237
 H         -4.5450291001        3.4551947179       -1.4187719882
 H         -3.9817377016        1.5087134861       -2.9201330803
 H         -5.1934432881        1.1354076222       -1.6780579207
 O         -2.1103471693        0.1907034989       -2.0327354742
 C         -1.1134217190       -0.7074607689       -1.6643658983
 O         -0.0856177522       -0.6145247917       -2.3594930675
 O         -2.8707960790       -2.3434209703        1.0431396037
 C         -0.3487227806       -2.5877642445       -0.1176448031
 C          0.4473588478       -2.0003449917        1.0231814043
 C          0.8135526855       -2.7756197964        2.1176432736
 C          1.5395394903       -2.2213169511        3.1571346742
 C          1.9021584910       -0.8870104823        3.1322466651
 C          1.5231561679       -0.0964174421        2.0512631701
 C          0.8152223141       -0.6631414821        1.0014838387
 H          0.5176993244       -0.0422316370        0.1729753185
 N          1.8205033720        1.2682981733        2.0350455677
 S          1.8709501996        2.2149885059        0.6639288997
 O          2.3633628192        3.4857703585        1.1537377876
 O          0.5837257328        2.2433167110        0.0179160902
 C          3.1227267718        1.4786189653       -0.3703575914
 C          4.4350760919        1.6427934345        0.0345547257
 C          5.4497396669        1.0823533210       -0.7216787855
 C          5.1373312198        0.3704681310       -1.8708232137
 C          3.8180608104        0.2190118012       -2.2644859751
 C          2.7943335535        0.7730461651       -1.5087812718
 H          1.7618473813        0.6488626125       -1.7976543798
 H          3.5668621853       -0.3313900117       -3.1568657431
 H          5.9252842947       -0.0666287896       -2.4635933084
 H          6.4768335651        1.2025689812       -0.4170125390
 H          4.6351417783        2.2223009468        0.9210821268
 H          2.4251605074        1.6018213287        2.7691166668
 H          2.4549441404       -0.4515714313        3.9501477465
 H          1.8197087386       -2.8327292397        4.0013098914
 H          0.5062041996       -3.8099459103        2.1622381120
 H         -0.9376907244       -3.4228396105        0.2960243460
 C          0.5374792292       -3.1547011690       -1.2168660324
 C          1.9700879354       -2.7613722346       -1.3944474711
 C          1.6300812253       -4.1299123934       -0.8910150058
 H          1.7760049736       -4.9737892980       -1.5479949328
 H          1.8228028195       -4.3400053416        0.1494112799
 H          2.3358087791       -2.6511447239       -2.4030299256
 H          2.3892075457       -2.0475889391       -0.7017960041
 H         -0.0240196626       -3.3416434578       -2.1263333972
