  62
        -98.94530327
 C         -2.4866323381       -1.1644241674       -0.0275341769
 C         -3.1519016888       -0.3164402226        0.8891542397
 C         -3.7214264088        0.9166730599        0.3313278763
 C         -3.5746591037        1.1726573287       -0.9816707653
 C         -4.0397386563        2.4237853028       -1.6677025368
 C         -2.9339200844        3.4887906469       -1.6799675115
 C         -2.2867860101        3.7241062175       -0.3147829788
 H         -1.7386663829        2.8248143833       -0.0207035941
 H         -1.5442875226        4.5159744946       -0.4382890666
 C         -3.2720766510        4.1117787143        0.7972740795
 H         -4.2066149002        4.4608009386        0.3568703318
 H         -2.8483885615        4.9439220934        1.3633953158
 C         -3.5705016311        2.9962008840        1.8006659243
 H         -4.0948820981        3.4369179574        2.6526553657
 H         -2.6304094808        2.5817843897        2.1747980985
 C         -4.4342147706        1.8409682559        1.2782783620
 H         -4.7217607357        1.2274599030        2.1371283927
 H         -5.3414532199        2.2384770513        0.8196534759
 H         -2.1523998606        3.1710127408       -2.3745510047
 H         -3.3580562148        4.4244058824       -2.0488761799
 H         -4.3021066723        2.1747529167       -2.6971560857
 H         -4.9223220916        2.8063974286       -1.1589742683
 O         -2.9303694821        0.3345673186       -1.8324202693
 C         -2.3489917366       -0.8406233090       -1.3779021195
 O         -1.7614929165       -1.4951619999       -2.2587102408
 O         -3.2545109446       -0.5731975730        2.1201588351
 C         -1.8225375913       -2.4282078769        0.4932105482
 C         -0.3293291040       -2.2830227453        0.3293359264
 C          0.4689910447       -3.1808195038       -0.3649891765
 C          1.8240506053       -2.9384652004       -0.5173911144
 C          2.4102731758       -1.8071060956        0.0192275957
 C          1.6216344356       -0.9072254324        0.7249230971
 C          0.2685136826       -1.1547762098        0.8796938567
 H         -0.3466652904       -0.4479990250        1.4244542768
 N          2.2106607646        0.2529764256        1.2728859046
 S          2.8651542647        1.3308533307        0.1554620337
 O          2.8468077305        2.6192560834        0.8143542243
 O          2.1853046918        1.2499810609       -1.1175851382
 C          4.5501339311        0.7820526609       -0.0080129990
 C          5.3499135705        0.7955729349        1.1181504581
 C          6.6614551089        0.3613523283        1.0117934180
 C          7.1482276930       -0.0740805463       -0.2119822874
 C          6.3334365679       -0.0772350142       -1.3339086810
 C          5.0197693262        0.3546392806       -1.2342374349
 H          4.3459475155        0.3634323811       -2.0762749713
 H          6.7134160124       -0.4156184064       -2.2844304739
 H          8.1688542556       -0.4133480474       -0.2922124580
 H          7.2983459042        0.3627799550        1.8815847099
 H          4.9320601896        1.1463273332        2.0468935303
 H          1.5854015743        0.7545126250        1.8889143420
 H          3.4632359234       -1.6130435086       -0.1044208186
 H          2.4315344984       -3.6404350276       -1.0678368510
 H          0.0284682098       -4.0620086050       -0.8010618489
 H         -2.0482192323       -2.4536115637        1.5695679362
 C         -2.3996192136       -3.6661594954       -0.1563661346
 C         -2.3151391183       -4.9868980150        0.5471168834
 C         -3.6328415236       -4.2836511486        0.4292432289
 H         -4.3762206208       -4.6853066857       -0.2427352261
 H         -4.0485979616       -3.8209805547        1.3125082675
 H         -2.1554747898       -5.8761759276       -0.0433494985
 H         -1.8363177378       -5.0069886814        1.5143048732
 H         -2.3124589424       -3.6516199772       -1.2365140306
