  62
        -98.94488927
 C          2.1550279695        0.9678454586        0.5217057918
 C          2.2987552489        0.2260850961       -0.6763470464
 C          3.0253529847       -1.0444993330       -0.5537606058
 C          3.4456654529       -1.4635662987        0.6532040181
 C          4.1729786352       -2.7487307880        0.9422182677
 C          5.6884910620       -2.6752626231        0.7096338281
 C          6.1206293726       -2.6286200730       -0.7564759863
 H          7.1985119739       -2.8007038965       -0.7777845223
 H          5.6490385750       -3.4487918978       -1.2986214599
 C          5.8186847270       -1.3002916656       -1.4641600639
 H          5.6218145935       -0.5267383357       -0.7184356149
 H          6.6960810607       -0.9825271213       -2.0316941246
 C          4.6435399214       -1.3554306958       -2.4404749292
 H          4.8830023037       -2.0301028539       -3.2652614017
 H          4.4943757420       -0.3553724631       -2.8551305600
 C          3.3200075926       -1.8077855873       -1.8094196053
 H          2.5115119298       -1.6047299273       -2.5163172101
 H          3.3443541453       -2.8786736373       -1.6076849386
 H          6.0795618861       -1.7999947002        1.2333602257
 H          6.1305664933       -3.5625498931        1.1686247458
 H          3.9964190214       -2.9753478400        1.9960712387
 H          3.7482042233       -3.5523399393        0.3395942199
 O          3.2265503966       -0.7520041665        1.7919933879
 C          2.5907179140        0.4787730312        1.7524543135
 O          2.4636216884        1.0259540693        2.8682093410
 O          1.8491121764        0.6002082542       -1.7897046065
 C          1.4344910267        2.3061234872        0.5100665861
 C         -0.0066688875        2.0750850479        0.1234218154
 C         -0.6322550664        2.6891668157       -0.9521507343
 C         -1.9461654061        2.3823099555       -1.2644938227
 C         -2.6626898251        1.4699412975       -0.5123028282
 C         -2.0484021012        0.8573606436        0.5727362814
 C         -0.7346030915        1.1660311402        0.8826923960
 H         -0.2526351737        0.6820229164        1.7245540562
 N         -2.7739822566       -0.0704539482        1.3498691292
 S         -3.3180168479       -1.4434428888        0.5410383676
 O         -3.4787398259       -2.4502782811        1.5683502822
 O         -2.4512897833       -1.7861151269       -0.5636786329
 C         -4.9240447022       -0.9670215726       -0.0610891812
 C         -5.1952349740       -1.0186658008       -1.4141973563
 C         -6.4551108759       -0.6481466812       -1.8587483552
 C         -7.4148611009       -0.2350814926       -0.9473130299
 C         -7.1264326930       -0.1903948467        0.4088042295
 C         -5.8698103405       -0.5608372003        0.8601875967
 H         -5.6046151866       -0.5453350720        1.9040796273
 H         -7.8754039021        0.1316850187        1.1141709134
 H         -8.3937607193        0.0536137510       -1.2961327465
 H         -6.6809248935       -0.6822966761       -2.9124409916
 H         -4.4140770798       -1.3396239957       -2.0847899883
 H         -2.2801207333       -0.3511297229        2.1860509546
 H         -3.6840292121        1.2265770058       -0.7559370143
 H         -2.4179689527        2.8602130521       -2.1093606736
 H         -0.0876203196        3.3960684370       -1.5556899102
 H          1.4525867706        2.6688043967        1.5480582888
 C          2.1584815580        3.3019084991       -0.3695173370
 C          1.9980126594        4.7712074386       -0.1241755121
 C          3.2908544769        4.0920700758        0.2116231389
 H          4.1540751129        4.2867166759       -0.4069268030
 H          3.5292322658        3.9273114476        1.2526582905
 H          1.9757615072        5.4367891993       -0.9735825200
 H          1.3590371575        5.0741390843        0.6913680067
 H          2.2625076280        2.9594444421       -1.3920867405
