  62
        -98.93550171
 C          2.2597573692        1.2415439504        0.1674092492
 C          3.2207819493        0.6319562603        1.0089921890
 C          4.1008458491       -0.3884429998        0.4060809288
 C          3.9078465388       -0.7245816398       -0.8826533812
 C          4.6448430185       -1.7505830099       -1.7024587013
 C          4.2347784183       -3.1913683998       -1.3606799612
 C          4.1405234286       -3.4944984098        0.1322593688
 H          3.7529628485       -4.5111480498        0.2400397689
 H          3.4114659688       -2.8219116197        0.5883435290
 C          5.4591030288       -3.4118677700        0.8980088885
 H          6.1778407986       -4.0999983001        0.4479300684
 H          5.2630375390       -3.7564535000        1.9165691486
 C          6.0986450590       -2.0238646701        0.9830863584
 H          6.6135720688       -1.7694145801        0.0605447283
 H          6.8637123191       -2.0660702102        1.7636660882
 C          5.1387753392       -0.9047181899        1.3736307386
 H          5.7273979194       -0.0269577300        1.6668284985
 H          4.5928279794       -1.1976390099        2.2777772087
 H          4.9476590382       -3.8724100299       -1.8286810214
 H          3.2517063682       -3.3770264197       -1.8012358310
 H          5.7170014885       -1.6178820800       -1.5918393215
 H          4.3908385383       -1.5564282099       -2.7469681513
 O          2.9230735587       -0.1598496397       -1.6382919310
 C          2.0818926189        0.8285838604       -1.1533507408
 O          1.2462900988        1.2331539306       -1.9825456906
 O          3.3428646696        0.9224421103        2.2300445590
 C          1.3717145895        2.3145543605        0.7711131894
 C         -0.0720631806        2.0590225107        0.4177557997
 C         -0.8708134406        2.9621140708       -0.2701279602
 C         -2.1855676907        2.6478522410       -0.5671094999
 C         -2.7329791808        1.4379975411       -0.1831717098
 C         -1.9409295008        0.5231604110        0.4986411601
 C         -0.6263659307        0.8430454808        0.7996681098
 H         -0.0070351007        0.1268131107        1.3271699497
 N         -2.4884734309       -0.7050656089        0.9074981602
 S         -3.3965862312       -1.5950574988       -0.1881072696
 O         -3.3208716613       -2.9587202088        0.2914133004
 O         -2.9742344815       -1.3697324489       -1.5507473497
 C         -5.0542655911       -0.9892646386        0.0512164807
 C         -5.5698466208       -0.9888234085        1.3325847908
 C         -6.8599753907       -0.5252638684        1.5343935711
 C         -7.6096950109       -0.0756092383        0.4575843312
 C         -7.0792961611       -0.0865397084       -0.8233055489
 C         -5.7887751312       -0.5481237285       -1.0319543191
 H         -5.3318166114       -0.5687760886       -2.0087546492
 H         -7.6632718213        0.2629842017       -1.6595011088
 H         -8.6132965108        0.2855958419        0.6174906714
 H         -7.2756567505       -0.5150455683        2.5290660312
 H         -4.9555150707       -1.3484471886        2.1409275507
 H         -1.8334471708       -1.3009638690        1.3926398600
 H         -3.7543448409        1.1889480012       -0.4198496796
 H         -2.7931748107        3.3561477211       -1.1094657398
 H         -0.4575566706        3.9012657508       -0.5983980803
 H          1.4811383397        2.1747381905        1.8600821993
 C          1.8239197996        3.7363296005        0.4734279493
 C          3.2641416396        4.0483861103        0.2007729690
 C          2.2503761994        4.1735257704       -0.8947521508
 H          1.9746773695        5.1644305205       -1.2250001908
 H          2.2433683691        3.4343109004       -1.6803414708
 H          3.6822041698        4.9497907602        0.6230572789
 H          3.9581080995        3.2211364202        0.1630779488
 H          1.2821735899        4.4642593806        1.0694644894
