  62
        -98.94286932
 C         -2.3288344906       -0.5646380921       -0.0948155823
 C         -1.3073392509       -0.8275855123        0.8438087581
 C         -0.4984205099       -2.0384309115        0.6245045573
 C         -0.7679665987       -2.8189924706       -0.4368134537
 C         -0.0310733275       -4.0326323995       -0.9472951045
 C          0.5720231626       -5.0126526501        0.0682796049
 C          2.0927528824       -4.8994874491        0.2054333259
 H          2.4839920029       -5.8646033092        0.5356075151
 H          2.5137913429       -4.6971981178       -0.7818849537
 C          2.5927753411       -3.8416806898        1.1873181573
 H          2.3701816807       -4.1609499910        2.2077706968
 H          3.6796452711       -3.7895507189        1.0901870880
 C          2.0165808502       -2.4399227400        0.9853510084
 H          1.9818735006       -2.1812266689       -0.0748879314
 H          2.6917714793       -1.7234681900        1.4597998095
 C          0.6200665997       -2.2641740817        1.6033027777
 H          0.3809525699       -3.1181354525        2.2411795067
 H          0.6121238886       -1.3816168323        2.2490201286
 H          0.0879870619       -4.8954810615        1.0356423247
 H          0.3469069135       -6.0207328999       -0.2846980263
 H         -0.7567703068       -4.5559275494       -1.5756414855
 H          0.7515199526       -3.6684576682       -1.6209567237
 O         -1.7996212884       -2.5539002105       -1.2902040040
 C         -2.5714439693       -1.4135648911       -1.1708508233
 O         -3.4316244989       -1.2718351208       -2.0657221937
 H         -0.9637764108        0.9192362605       -1.6096458099
 C         -1.0302987918        1.7757263298       -0.9545241391
 C         -2.0898460924        1.8798758881       -0.0616577396
 C         -2.1597052637        3.0030422272        0.7523435715
 C         -1.1721628844        3.9722392680        0.6942730431
 C         -0.0860530938        3.8309861196       -0.1504096164
 C         -0.0145949224        2.7165600805       -0.9787531975
 N          1.0765036382        2.5081258822       -1.8470779771
 S          1.9985577691        1.1218075327       -1.6484741580
 O          3.0340353196        1.2208613345       -2.6554864872
 O          1.1630613800       -0.0495177578       -1.7103920197
 C          2.7397657880        1.2959430916       -0.0344668973
 C          4.0780844377        1.6304105725        0.0475220038
 C          4.6504902369        1.8137504616        1.2956836543
 C          3.8754479363        1.6706529699        2.4368775037
 C          2.5327388166        1.3414154690        2.3365192926
 C          1.9536122375        1.1509530898        1.0908820320
 H          0.9128345877        0.8851481592        0.9956271511
 H          1.9212922761        1.2275833876        3.2175494621
 H          4.3186868456        1.8151428192        3.4095476941
 H          5.6951514166        2.0683870923        1.3742032752
 H          4.6398059782        1.7303795538       -0.8671591158
 H          1.6949674677        3.3042961328       -1.9233960359
 H          0.6998655957        4.5708725102       -0.1698240852
 H         -1.2378453754        4.8388609373        1.3341950439
 H         -2.9817839742        3.1143885259        1.4403434811
 C         -3.0899963816        0.7473753273       -0.0225185714
 H         -3.7074876911        0.7942427478       -0.9317282017
 C         -3.9957679223        0.7830757354        1.1902885981
 C         -5.2695429929        1.5719368945        1.1602127782
 C         -5.3142354818        0.0746063245        1.1267353566
 H         -5.6589757219       -0.4535650267        2.0029029458
 H         -5.5687302409       -0.4120323047        0.1960758559
 H         -5.5889087138        2.0710753833        2.0625992085
 H         -5.5076225127        2.1043132552        0.2516938986
 H         -3.4438401028        0.7314895548        2.1215128884
 O         -1.0571157021       -0.0621782131        1.8137847890
