  62
        -98.94035197
 C         -1.4741372523       -1.4717181592       -0.0050843936
 C         -2.4767562950       -0.9832793991        0.8613573867
 C         -3.2591612078        0.1698631088        0.3795526488
 C         -2.9617003228        0.6971428692       -0.8227170100
 C         -3.6343506167        1.8764849558       -1.4710589099
 C         -3.1687417014        3.2361269899       -0.9027916552
 C         -2.6993747518        3.2055812264        0.5522854889
 H         -2.0024240568        2.3757164437        0.6876657944
 H         -2.1439239612        4.1262566629        0.7506432690
 C         -3.8240312835        3.1091109917        1.5840545204
 H         -3.3745870407        2.9242896458        2.5630571934
 H         -4.3368130675        4.0732966994        1.6317836978
 C         -4.8786906764        2.0390054780        1.3130291965
 H         -5.4033891076        2.2676263443        0.3889598202
 H         -5.6189344666        2.0965183574        2.1167566811
 C         -4.3701228738        0.5976830668        1.3050892341
 H         -5.2226722827       -0.0643826327        1.1075329901
 H         -4.0195934884        0.3393541744        2.3104625402
 H         -3.9784633495        3.9594227681       -1.0061007715
 H         -2.3336543192        3.5903558870       -1.5102295303
 H         -3.3912457267        1.8371451335       -2.5343948538
 H         -4.7112643098        1.7589315457       -1.3739090032
 O         -1.9514900374        0.2270450331       -1.6036133274
 C         -1.1898851743       -0.8679155266       -1.2305256094
 O         -0.3167522232       -1.1964660145       -2.0518379630
 O         -2.7086438011       -1.4852492047        1.9962265991
 C         -0.6576770820       -2.6806416458        0.4149175115
 C          0.8049283045       -2.3173078312        0.4712063223
 C          1.8081385269       -3.0610330802       -0.1346294937
 C          3.1281948150       -2.6481373832       -0.0646259529
 C          3.4770206130       -1.4940007962        0.6114947000
 C          2.4815213530       -0.7490835102        1.2309097572
 C          1.1621301576       -1.1641603351        1.1602409695
 H          0.3881726596       -0.5776235850        1.6405879085
 N          2.8247451508        0.4399533199        1.9104239635
 S          3.5575727240        1.6175176198        0.9656050043
 O          4.9300545280        1.2457447237        0.7330654740
 O          3.3478715834        2.8610221095        1.6729838683
 C          2.6449663647        1.5989226458       -0.5641886581
 C          3.1492099493        0.9220921885       -1.6556082282
 C          2.3873988618        0.8537253962       -2.8104129174
 C          1.1414344952        1.4576580764       -2.8534041824
 C          0.6513598612        2.1365550724       -1.7493517766
 C          1.4035968249        2.2022914116       -0.5891945711
 H          1.0523310024        2.7212435319        0.2894225041
 H         -0.3227247878        2.5967334113       -1.7842368494
 H          0.5421541180        1.3904250334       -3.7471375036
 H          2.7603510399        0.3195061046       -3.6690629127
 H          4.1229999086        0.4663837475       -1.5823448521
 H          2.0440848217        0.8473916358        2.4059904047
 H          4.4974013212       -1.1503353228        0.6642351903
 H          3.8961280144       -3.2331180770       -0.5472705307
 H          1.5571477179       -3.9606218648       -0.6716598627
 H         -0.9913581700       -2.9206961486        1.4355207793
 C         -0.9599258114       -3.8595235230       -0.4856507820
 C         -0.8206832420       -5.2591680671        0.0317273744
 C         -2.1818900423       -4.6825770635       -0.2129918843
 H         -2.7559380867       -5.0477588754       -1.0513176945
 H         -2.7844289586       -4.4081730598        0.6407635850
 H         -0.4619583253       -6.0249118820       -0.6393168094
 H         -0.5005029610       -5.3843528110        1.0550528454
 H         -0.7082748501       -3.6668426375       -1.5223688403
