  62
        -98.93953474
 C          1.2717994772        1.6495447430       -0.0329686369
 C          2.3689271259        1.3131130074        0.7917148630
 C          3.1989766351        0.1866901888        0.3366498216
 C          2.8672471482       -0.4528664929       -0.8000899339
 C          3.5645543182       -1.6649949813       -1.3513190469
 C          3.1486807670       -2.9241788578       -0.5639177591
 C          4.2817568891       -3.5768584952        0.2286320903
 H          3.8307197093       -4.3111200865        0.8998090228
 H          4.9319586046       -4.1184395967       -0.4615770711
 C          5.1585463641       -2.6251068571        1.0477298946
 H          5.7293490478       -3.2403721422        1.7465260875
 H          5.8861587051       -2.1413855256        0.3943396109
 C          4.4142561556       -1.5422194655        1.8395399909
 H          3.3900600307       -1.8532068574        2.0479882756
 H          4.9116474235       -1.4252796559        2.8046826153
 C          4.4025349992       -0.1545240681        1.1713714292
 H          5.3086241617       -0.0321348094        0.5713206488
 H          4.4237896598        0.6086671312        1.9552430263
 H          2.3387732730       -2.6520103051        0.1165195192
 H          2.7483015966       -3.6711862626       -1.2514458517
 H          3.2755713873       -1.7572216157       -2.3983216979
 H          4.6418350721       -1.5226313829       -1.3003743295
 O          1.7955255084       -0.1072155369       -1.5589382362
 C          0.9723719291        0.9514525925       -1.2038074852
 O          0.0344185981        1.1635452777       -1.9908917470
 O          2.6396738454        1.9222712310        1.8632400434
 C          0.3582967261        2.7912359933        0.3747730518
 C         -1.0587848203        2.2880218309        0.4962638141
 C         -2.1566333532        2.9445848974       -0.0429935168
 C         -3.4260008690        2.4031495328        0.0729280518
 C         -3.6300698361        1.2028819890        0.7277818858
 C         -2.5397515769        0.5452627514        1.2827109283
 C         -1.2721560301        1.0918823785        1.1710173364
 H         -0.4250561732        0.5720303761        1.6024939251
 N         -2.7312883486       -0.6886524217        1.9416753076
 S         -3.3717866376       -1.9223565977        1.0020763637
 O         -4.7756561219       -1.6714958486        0.7966740705
 O         -3.0390429306       -3.1434976661        1.7016446165
 C         -2.4974145422       -1.8326316010       -0.5476914540
 C         -3.0560100506       -1.1484208105       -1.6076547645
 C         -2.3360992713       -1.0378437364       -2.7856190091
 C         -1.0778540963       -1.6089873235       -2.8828493547
 C         -0.5318881492       -2.2958595155       -1.8103231060
 C         -1.2428162795       -2.4030166127       -0.6270348875
 H         -0.8519836641       -2.9309800843        0.2292137062
 H          0.4507600376       -2.7322245714       -1.8888233383
 H         -0.5133229527       -1.5098512617       -3.7960692565
 H         -2.7516181509       -0.4962232435       -3.6196903870
 H         -4.0384603227       -0.7205719004       -1.4934992790
 H         -1.8944954374       -1.0216093960        2.3998623721
 H         -4.6083881219        0.7576992394        0.8107616113
 H         -4.2683425545        2.9218797905       -0.3587298659
 H         -2.0187688072        3.8768320256       -0.5653203157
 H          0.7025308597        3.1051975961        1.3715042586
 C          0.5079328339        3.9562269766       -0.5808782455
 C          0.2808262044        5.3592331299       -0.1051490729
 C          1.6698001530        4.8864853687       -0.4091192901
 H          2.1638251075        5.2638746118       -1.2918457217
 H          2.3396604537        4.6949816778        0.4165527546
 H         -0.1771563254        6.0658197446       -0.7807568780
 H          0.0089894432        5.4990398652        0.9302071373
 H          0.2153198507        3.7023401947       -1.5934602287
