  62
        -98.93437670
 C         -2.5143129756       -0.7583801680        0.9851030615
 C         -3.5759285348       -1.1051520127        0.1125536712
 C         -4.7990760072       -0.2988067453        0.2495312591
 C         -4.8611914289        0.6900708839        1.1579196778
 C         -6.0423037691        1.5851772486        1.4182643201
 C         -6.1363402891        2.7859147508        0.4668967979
 C         -6.5619772259        2.4513361051       -0.9632895964
 H         -7.4773576252        1.8591837077       -0.9397836331
 H         -6.7979899589        3.3964426931       -1.4564591578
 C         -5.4938924164        1.7187989152       -1.7874784812
 H         -5.4181825076        2.1778744710       -2.7758635597
 H         -4.5191732729        1.8342434369       -1.3073100845
 C         -5.7681064979        0.2299347539       -1.9996890911
 H         -6.6741678666        0.1056354916       -2.5970233541
 H         -4.9333077135       -0.1952509642       -2.5627048310
 C         -5.9236365261       -0.5747985962       -0.7027663935
 H         -5.8930563526       -1.6378096865       -0.9542140217
 H         -6.8822946898       -0.3526931254       -0.2346770449
 H         -6.8685877120        3.4786429950        0.8880987234
 H         -5.1694651732        3.2943205184        0.4495767296
 H         -5.9278059483        1.9615427798        2.4370707962
 H         -6.9628179009        1.0033046997        1.3640389682
 O         -3.8226800408        0.9857374621        1.9847508175
 C         -2.6305722049        0.2878381839        1.9047107941
 O         -1.7572364064        0.6770181083        2.7070500836
 O         -3.5311859930       -2.0298186651       -0.7375419619
 C         -1.1677114391       -1.4631689084        0.9820585596
 C         -0.2327406055       -0.8097661687       -0.0039961801
 C         -0.6141582779       -0.5935644967       -1.3244576883
 C          0.2561627481        0.0085231815       -2.2147115703
 C          1.5166388629        0.4110592539       -1.8094003479
 C          1.9072765413        0.2017451249       -0.4936694023
 C          1.0337171150       -0.4115588234        0.3970251027
 H          1.3351970135       -0.5617752480        1.4250251978
 N          3.1756433197        0.6307167769       -0.0658717170
 S          4.4833762943        0.3602689507       -1.1014706849
 O          4.5048270994        1.4065704152       -2.0925671656
 O          4.4372351317       -0.9917312633       -1.6112675936
 C          5.8524845535        0.5603557715        0.0201427567
 C          6.2673537172        1.8396923401        0.3385014897
 C          7.3162503491        2.0001842441        1.2297007257
 C          7.9282757175        0.8859700323        1.7848462001
 C          7.5014839271       -0.3914263927        1.4543833689
 C          6.4520544973       -0.5593626103        0.5645997915
 H          6.0927356567       -1.5331047986        0.2723651169
 H          7.9814202279       -1.2554484888        1.8850892211
 H          8.7452081596        1.0138441589        2.4773601820
 H          7.6529729655        2.9912952220        1.4876277512
 H          5.7681192494        2.6751713931       -0.1238011714
 H          3.3843716665        0.3322800840        0.8771129164
 H          2.2029131043        0.8801968630       -2.4959565134
 H         -0.0497384596        0.1681255863       -3.2381132943
 H         -1.5953255066       -0.9086487929       -1.6459140490
 H         -0.7543784792       -1.2932984938        1.9890020501
 C         -1.2781963986       -2.9699393457        0.7918354280
 C         -0.8225950367       -3.6915432977       -0.4368491143
 C         -0.0422485824       -3.8196311152        0.8345518255
 H         -0.0730294869       -4.7542269536        1.3737381435
 H          0.9088680422       -3.3102956485        0.8844416960
 H         -1.4167412669       -4.5275331307       -0.7727274590
 H         -0.3925767451       -3.1155417499       -1.2411331780
 H         -2.1587917823       -3.3724749535        1.2816720594
