  62
        -98.92830389
 C          2.5392772497        1.1547167707        0.7157381799
 C          2.6023835097       -0.1670177393        1.2260493499
 C          3.8144922395       -0.9383611794        0.9185834798
 C          4.7844589095       -0.3610772395        0.1868117396
 C          6.0449480194       -1.0327921897       -0.2789478105
 C          5.7393059491       -1.9425519097       -1.4859423305
 C          5.9422190090       -3.4342219697       -1.2191038504
 H          5.4918217288       -3.9788602397       -2.0517495504
 H          7.0121712590       -3.6526694398       -1.2225963806
 C          5.3610956591       -3.9638749596        0.0954761096
 H          6.0318965493       -3.7165752496        0.9196082596
 H          5.3485421390       -5.0533087296        0.0204069897
 C          3.9489930292       -3.4797703394        0.4501036998
 H          3.4055977191       -3.1825881594       -0.4475534201
 H          3.4024517892       -4.3180451794        0.8872594099
 C          3.9040942495       -2.3318350394        1.4761851798
 H          3.0044416195       -2.4458673693        2.0881265699
 H          4.7674804696       -2.4043606995        2.1434472497
 H          4.7072626191       -1.7645171796       -1.7963345803
 H          6.3727408590       -1.6567412598       -2.3270734206
 H          6.4776701294       -1.6089440197        0.5358037094
 H          6.7455135694       -0.2474450197       -0.5632866306
 O          4.6888720196        0.9050405305       -0.2899104204
 C          3.5669495797        1.6947628206       -0.0581666403
 O          3.6336432997        2.8187278506       -0.5857768303
 O          1.6806999897       -0.6745623391        1.9221755400
 C          1.2805146599        1.9401271509        1.0378257100
 C          0.2261730997        1.6919520609       -0.0110300999
 C          0.5032990295        1.8581304009       -1.3643887499
 C         -0.4724619306        1.6110827409       -2.3127050498
 C         -1.7375567806        1.1940356811       -1.9360545896
 C         -2.0209550705        1.0131134812       -0.5892037195
 C         -1.0386746703        1.2639479911        0.3621196503
 H         -1.2558761902        1.1065741211        1.4099877804
 N         -3.3073723104        0.6071670313       -0.1872809294
 S         -4.0541779407       -0.6335819987       -1.0597815492
 O         -3.1628815308       -1.7660738887       -1.1802345593
 O         -4.5496677808       -0.0866847186       -2.2977347892
 C         -5.4182145406       -1.0160983085        0.0201055510
 C         -6.5569516105       -0.2360205684       -0.0487009989
 C         -7.6088404704       -0.5106009282        0.8105182212
 C         -7.5047923604       -1.5536477982        1.7189345013
 C         -6.3560780705       -2.3286511283        1.7748482911
 C         -5.2993684006       -2.0586089085        0.9193785910
 H         -4.3909050906       -2.6399021886        0.9228727109
 H         -6.2790079405       -3.1405160983        2.4800731511
 H         -8.3248660203       -1.7660905081        2.3864855114
 H         -8.5046886904        0.0876229219        0.7690132913
 H         -6.5955539205        0.5575596116       -0.7763468289
 H         -3.3415041403        0.4034358313        0.8030641407
 H         -2.5001793107        0.9908230111       -2.6700533495
 H         -0.2461355207        1.7426884909       -3.3605086498
 H          1.4903663295        2.1796604308       -1.6625190900
 H          0.9136443199        1.5010273009        1.9794555401
 C          1.5285215400        3.4186074109        1.2981583899
 C          1.0842089500        4.5113877309        0.3778636100
 C          0.3842415202        4.3083666210        1.6858607100
 H          0.5329444604        5.0307609110        2.4738659600
 H         -0.6068694199        3.8807860811        1.6562739602
 H          1.7400909701        5.3603340408        0.2610132398
 H          0.5634342999        4.2394490809       -0.5265385500
 H          2.4689007501        3.5831461208        1.8139914198
