  62
        -98.93651163
 C         -1.8149468506       -0.6173653309       -0.1806976894
 C         -2.9262519805       -0.8932446814        0.6513957605
 C         -4.2059276106       -0.2576998012        0.2893783409
 C         -4.2416725306        0.5801667895       -0.7622661185
 C         -5.4144256806        1.3433128099       -1.3241056380
 C         -6.3437281005        2.0275602093       -0.3097960375
 C         -7.7173090105        1.3634828792       -0.1979511979
 H         -8.4327118205        2.1014496290        0.1719177826
 H         -8.0425161406        1.0681295899       -1.1977283281
 C         -7.7811141405        0.1528807286        0.7318832313
 H         -7.7074583805        0.4891815479        1.7683926715
 H         -8.7649194005       -0.3061412113        0.6088377110
 C         -6.7096135206       -0.9128004513        0.4934793605
 H         -6.5557457606       -1.0673341606       -0.5738877496
 H         -7.0804242106       -1.8554708415        0.9015207599
 C         -5.3700236405       -0.6020803017        1.1778487307
 H         -5.5026209205        0.1976244478        1.9122261713
 H         -5.0354497205       -1.4763890321        1.7447516201
 H         -6.4942518105        3.0569697195       -0.6393228068
 H         -5.8616245405        2.0698147186        0.6656523325
 H         -5.9932214506        0.6688095404       -1.9602190084
 H         -4.9730876206        2.0917642304       -1.9863098075
 O         -3.1382440106        0.8398707700       -1.5197315184
 C         -1.9097334306        0.2548107098       -1.2639471188
 O         -1.0136292806        0.5891342504       -2.0624936586
 O         -2.8560365005       -1.6502199721        1.6565242299
 C         -0.4867684006       -1.2722716211        0.1605026601
 C          0.4608204695       -0.2145284315        0.6675360708
 C          0.4018213595        0.1750587776        2.0024810011
 C          1.2415623195        1.1589369573        2.4914185417
 C          2.1541693495        1.7813503778        1.6569923521
 C          2.2116155595        1.4067221187        0.3219377318
 C          1.3796192694        0.4074843091       -0.1640083388
 H          1.4279204494        0.1368178098       -1.2068931890
 N          3.1448863995        2.0360243593       -0.5330049278
 S          4.7530107895        1.7044514391       -0.2001415880
 O          5.1070380195        2.3179968182        1.0543149824
 O          5.4960900694        2.1407684698       -1.3602975378
 C          4.8157373494       -0.0716969510       -0.0531119092
 C          5.0184953694       -0.8242300303       -1.1926314297
 C          4.9873741494       -2.2059523603       -1.0976965206
 C          4.7409551994       -2.8077917412        0.1268128490
 C          4.5346655495       -2.0375056119        1.2607106795
 C          4.5708631695       -0.6551048119        1.1737561404
 H          4.4198845195       -0.0221805024        2.0326782508
 H          4.3425644195       -2.5077613725        2.2117147992
 H          4.7091866594       -3.8836499212        0.1972382482
 H          5.1508743794       -2.8079594598       -1.9773052711
 H          5.2095258394       -0.3161884997       -2.1244768094
 H          2.9593182294        1.8545561800       -1.5097419579
 H          2.8259708095        2.5428666376        2.0190749526
 H          1.1851350196        1.4465054466        3.5304151419
 H         -0.3193856105       -0.3010472328        2.6519448508
 H         -0.7083661505       -1.9543724317        0.9920011197
 C          0.0737684994       -2.0750581404       -0.9952879404
 C          1.2286410994       -2.9974771105       -0.7466603111
 C         -0.1318264506       -3.5584860003       -1.0287742914
 H         -0.3085102907       -4.0309654797       -1.9833895317
 H         -0.6809179206       -4.0055590609       -0.2132746917
 H          1.9915362794       -3.0851863700       -1.5046734511
 H          1.6056848794       -3.0573859312        0.2628710389
 H          0.0377330094       -1.5500938097       -1.9419378901
