  62
        -98.94600136
 C         -1.6041458501       -1.3302494876       -0.7801237556
 C         -2.8066903500       -0.8876495986       -0.1684136174
 C         -3.2830705610        0.4441900548       -0.5487599253
 C         -2.6060046110        1.1531702924       -1.4693794008
 C         -2.9420691166        2.5394981407       -1.9456420393
 C         -2.3773643015        3.6386897041       -1.0349146626
 C         -3.1072452388        3.8106664643        0.2979433566
 H         -2.7678680921        4.7548162798        0.7288788908
 H         -4.1795787579        3.8992890995        0.1179148263
 C         -2.8422678709        2.6872271422        1.3105408426
 H         -1.9416946491        2.1391376041        1.0188915404
 H         -2.6376442470        3.1244127281        2.2912300677
 C         -4.0008092815        1.7042711881        1.4882077918
 H         -4.8574865060        2.2252993528        1.9224260718
 H         -3.6836956545        0.9297674205        2.1916329824
 C         -4.4530988024        1.0119936903        0.1957059768
 H         -5.1127417433        0.1830477631        0.4642313249
 H         -5.0043812749        1.7103452913       -0.4334425748
 H         -1.3228273495        3.4234810270       -0.8412715436
 H         -2.4332561831        4.5826018323       -1.5826732662
 H         -2.4967009939        2.6484069563       -2.9368424569
 H         -4.0229663703        2.6523285684       -2.0332579819
 O         -1.5061148613        0.6654352549       -2.0925392035
 C         -0.9354692913       -0.5436359705       -1.7168159683
 O          0.1330258108       -0.7837825929       -2.3145652246
 O         -3.4473838046       -1.5789269915        0.6692801761
 C         -1.0285619963       -2.6281548926       -0.2356114957
 C         -0.2458411397       -2.2914970872        1.0139183189
 C         -0.5211535964       -2.9030493719        2.2296478457
 C          0.1411794453       -2.5051986089        3.3781997336
 C          1.0580412712       -1.4714340144        3.3387281989
 C          1.3451810025       -0.8560736366        2.1233516370
 C          0.7246986271       -1.3000420507        0.9669252839
 H          0.9539738646       -0.8260971051        0.0274139528
 N          2.2552133319        0.2059934909        2.0601622802
 S          2.0958697489        1.4821983002        0.9792194161
 O          2.5609356239        2.6359780667        1.7239368259
 O          0.7624395711        1.5746185258        0.4375547469
 C          3.3142574158        1.0984714332       -0.2616177227
 C          4.6364834454        1.3143480382        0.0815443103
 C          5.6298608941        1.0084245650       -0.8326219606
 C          5.2875818663        0.4907671840       -2.0733639091
 C          3.9582852647        0.2819140589       -2.4030790517
 C          2.9572368796        0.5874242124       -1.4918146433
 H          1.9179698240        0.4234715055       -1.7343888172
 H          3.6834645028       -0.1214611753       -3.3647665551
 H          6.0592800219        0.2498911070       -2.7875055637
 H          6.6643318892        1.1726202586       -0.5772904191
 H          4.8555283599        1.7308580478        1.0506899202
 H          2.5902767330        0.5276293626        2.9561811329
 H          1.5434077079       -1.1321457623        4.2413217793
 H         -0.0804929073       -2.9849374404        4.3195238552
 H         -1.2775655363       -3.6721128749        2.2776368770
 H         -1.8943875337       -3.2331871489        0.0678732265
 C         -0.1945790293       -3.4355504951       -1.2061460735
 C         -0.0485130619       -4.9102542136       -0.9820482819
 C         -0.8697030243       -4.4035626045       -2.1287070172
 H         -0.4846388160       -4.5088945978       -3.1314967879
 H         -1.9447324377       -4.4885356876       -2.0638416963
 H          0.9041561733       -5.3696737794       -1.1952879766
 H         -0.5680908981       -5.3441027099       -0.1412209854
 H          0.6609993291       -2.8984745265       -1.5926331158
