  62
        -98.93675533
 C         -1.4263094127       -0.8018135233       -0.1798010816
 C         -2.7096080315       -1.3876342350       -0.1247705929
 C         -3.8540286724       -0.4633273821       -0.0138313496
 C         -3.6190384299        0.8595701408        0.0553722228
 C         -4.6113684645        1.9896418559        0.1673746192
 C         -5.7679047301        1.7968033967        1.1603351667
 C         -7.1251294721        1.6000710004        0.4827460656
 H         -7.1849948339        2.2708946396       -0.3768465104
 H         -7.9110689667        1.8956949206        1.1814185977
 C         -7.4242560641        0.1719246136        0.0299494470
 H         -8.3452224878        0.1973726907       -0.5573971993
 H         -7.6156199182       -0.4523655213        0.9055526787
 C         -6.3282736575       -0.4928323089       -0.8054777901
 H         -5.9076224212        0.2160689099       -1.5176604895
 H         -6.7916461096       -1.2919876671       -1.3881167169
 C         -5.2070404883       -1.1192857271        0.0371104115
 H         -5.0277601676       -2.1464113602       -0.2960805746
 H         -5.5239476658       -1.1955052373        1.0814590411
 H         -5.8284888905        2.6935330463        1.7792132638
 H         -5.5516313959        0.9615523834        1.8246035154
 H         -5.0098444466        2.2007585761       -0.8280553778
 H         -4.0170215547        2.8595347000        0.4554499410
 O         -2.3590348908        1.3797576963        0.0052391054
 C         -1.2358528988        0.5780872041       -0.1141818699
 O         -0.1585375697        1.1980885115       -0.1458111882
 O         -2.8970095590       -2.6348361347       -0.1639517590
 C         -0.2051345317       -1.6924477444       -0.3102323913
 C          0.7574403977       -1.4206868656        0.8185615309
 C          0.2767899341       -1.3797247340        2.1254039903
 C          1.1240073739       -1.1086939957        3.1814615145
 C          2.4676680536       -0.8611421603        2.9586558788
 C          2.9604194168       -0.9155484644        1.6612192723
 C          2.1095217457       -1.2087439375        0.6034897243
 H          2.5239824747       -1.2699235823       -0.3876814016
 N          4.3181958809       -0.6890934931        1.4045340758
 S          4.8304240686       -0.0469838995       -0.0474442739
 O          4.8049985196       -1.0604755669       -1.0728271557
 O          6.1363222131        0.5011833124        0.2542196711
 C          3.7047141878        1.2732973941       -0.4581722973
 C          3.4803236279        2.2663053781        0.4731846128
 C          2.6245680602        3.3054064561        0.1498862230
 C          2.0137204049        3.3366342431       -1.0931054192
 C          2.2536860429        2.3353924507       -2.0191008485
 C          3.1058128576        1.2916752616       -1.7002071374
 H          3.3128871154        0.4877171045       -2.3893755488
 H          1.7708002975        2.3585857641       -2.9834310076
 H          1.3396542931        4.1416040348       -1.3395300127
 H          2.4291913296        4.0839350386        0.8698763308
 H          3.9723037127        2.2191364532        1.4313890279
 H          4.8578299862       -0.3510121676        2.1868652984
 H          3.1285441444       -0.6338410350        3.7809342667
 H          0.7348984351       -1.0781233130        4.1881328395
 H         -0.7758459902       -1.5569188779        2.2999518831
 H         -0.5760804866       -2.7236237567       -0.2132835208
 C          0.4179865616       -1.5213815234       -1.6798649518
 C          1.1957573351       -2.6398281189       -2.3043950272
 C         -0.1517411839       -2.2697856202       -2.8457581683
 H         -0.2066390846       -1.7716684562       -3.8020697897
 H         -0.9809491826       -2.9343293056       -2.6515049784
 H          2.0746884028       -2.3987923357       -2.8839896350
 H          1.2827270761       -3.5599393601       -1.7462528795
 H          0.7551164089       -0.5049735107       -1.8534868068
