  62
        -98.94265206
 C          2.1418883361        0.8850684725        0.1642056404
 C          2.6507113650        0.0023852801        1.1453750295
 C          3.0077302118       -1.3430840906        0.6774108810
 C          2.7919241155       -1.6692516598       -0.6103449502
 C          3.1396618528       -2.9919239079       -1.2282815652
 C          4.5551092984       -2.9748649116       -1.8222023151
 C          5.6178961633       -2.4302794045       -0.8677454230
 H          5.4218027113       -1.3714137230       -0.6843297191
 H          6.5793608925       -2.4952971927       -1.3814225738
 C          5.7039889734       -3.1696556017        0.4747627975
 H          6.7553436272       -3.3498795952        0.7080692925
 H          5.2184846977       -4.1427265328        0.3931596794
 C          5.1102381180       -2.4049994000        1.6592029715
 H          5.5243540687       -1.3940476990        1.6869316487
 H          5.4173213478       -2.9103330826        2.5786240339
 C          3.5801596329       -2.2991116750        1.6863230472
 H          3.2910604469       -1.9076132081        2.6662278572
 H          3.1393696443       -3.2914451494        1.5698512949
 H          4.5458332634       -2.3501474855       -2.7183232674
 H          4.8159113844       -3.9921279448       -2.1196521236
 H          2.4204769053       -3.1963544279       -2.0235673327
 H          3.0598450793       -3.7714252583       -0.4728683050
 O          2.2668479217       -0.8056249835       -1.5171301717
 C          1.9290003175        0.4903486744       -1.1571562995
 O          1.4600133317        1.1767602553       -2.0849081448
 O          2.7877889018        0.3217509595        2.3580536477
 C          1.7321466599        2.2884915625        0.5749691811
 C          0.2604983522        2.4779085296        0.2991189812
 C         -0.2694347882        3.5888116849       -0.3430791110
 C         -1.6260539482        3.6655945438       -0.6109335917
 C         -2.4819858652        2.6435601053       -0.2443279282
 C         -1.9639109549        1.5376813538        0.4143292191
 C         -0.6094489122        1.4673781046        0.6902704387
 H         -0.2122213355        0.5936750099        1.1946433835
 N         -2.8328016439        0.4756960605        0.7754760412
 S         -3.2579309093       -0.5430304521       -0.5096246939
 O         -2.3486906828       -1.6717616983       -0.5447946548
 O         -3.3746874899        0.2383200714       -1.7132067640
 C         -4.8717044745       -1.0899905237        0.0140139360
 C         -5.9394986140       -0.2311092449       -0.1599429883
 C         -7.1943923259       -0.6243987885        0.2757746942
 C         -7.3591953911       -1.8629783613        0.8781291207
 C         -6.2778866628       -2.7142648312        1.0457688053
 C         -5.0196760847       -2.3255915058        0.6124404909
 H         -4.1523267126       -2.9576535382        0.7152855026
 H         -6.4086444343       -3.6775544086        1.5120574718
 H         -8.3367782996       -2.1675148921        1.2170911044
 H         -8.0377815580        0.0343370122        0.1453778418
 H         -5.7646843663        0.7169539426       -0.6408744097
 H         -2.4143667944       -0.1118216139        1.4860484607
 H         -3.5337455520        2.6804152983       -0.4744347239
 H         -2.0189397524        4.5309734128       -1.1226823667
 H          0.3831404931        4.3892019945       -0.6514795659
 H          1.8902340366        2.3345769918        1.6630051817
 C          2.6146886720        3.3218433167       -0.0918186564
 C          2.8692067181        4.6407232774        0.5732091012
 C          3.9592494223        3.6153918642        0.5010332271
 H          4.7900987759        3.7880933036       -0.1663849077
 H          4.2275877338        3.0871522404        1.4043809635
 H          2.9547470560        5.5213097778       -0.0452385913
 H          2.4018936019        4.8158666854        1.5302827086
 H          2.5382163716        3.2959027827       -1.1732002384
