  62
        -98.93407915
 C         -2.2985756128       -0.5231929177        0.3174145296
 C         -3.4865839407       -0.4680104140        1.0875642417
 C         -4.5245686058        0.4930530300        0.6678442295
 C         -4.2720752848        1.2950518502       -0.3827526110
 C         -5.1777641215        2.3181773247       -1.0149023683
 C         -6.2764838302        1.6816001466       -1.8814594745
 C         -6.9652330124        0.4697953218       -1.2591893017
 H         -7.6394358500        0.0492642225       -2.0100623234
 H         -6.2164968128       -0.2922170828       -1.0349752047
 C         -7.7861343596        0.7598612283       -0.0048845194
 H         -8.2896932582       -0.1691435215        0.2748270325
 H         -8.5572403736        1.4956206148       -0.2439049348
 C         -6.9996214275        1.2570310999        1.2099525781
 H         -7.6612290465        1.1827342121        2.0779909623
 H         -6.7421464009        2.3078429535        1.1081132135
 C         -5.7550062323        0.4395901618        1.5412076093
 H         -5.4137262375        0.7154921732        2.5463339388
 H         -6.0300593359       -0.6190359052        1.6133270967
 H         -5.8210221776        1.3588674595       -2.8209572627
 H         -7.0197357969        2.4464220578       -2.1127662510
 H         -4.5480881243        2.9411753436       -1.6539425983
 H         -5.6090395579        2.9578982671       -0.2506904561
 O         -3.0949005617        1.2416632498       -1.0664860853
 C         -2.0838732131        0.3477696722       -0.7514098557
 O         -1.0846896638        0.4423977414       -1.4874292314
 O         -3.6841578755       -1.2010777934        2.0940264891
 C         -1.2394912951       -1.5249749124        0.7422011668
 C          0.1049962800       -0.8546809045        0.8577516281
 C          0.3662104182       -0.0430396130        1.9576989504
 C          1.5858460676        0.5925547721        2.0935622088
 C          2.5689594644        0.4376313191        1.1320667787
 C          2.3164179666       -0.3642898143        0.0278301431
 C          1.0947843042       -1.0121155810       -0.0992394856
 H          0.9042891667       -1.6199576685       -0.9703864502
 N          3.3049395548       -0.5064801841       -0.9615352671
 S          4.8388505807       -0.9886516815       -0.4867778316
 O          5.4224367579       -1.6124668081       -1.6546746350
 O          4.7906448093       -1.7932889078        0.7127543518
 C          5.6928784110        0.5390447111       -0.1598493823
 C          6.2759044392        0.7514952395        1.0739735909
 C          6.9440752598        1.9443190647        1.3030624281
 C          7.0177656476        2.8977652076        0.2992298282
 C          6.4291194159        2.6677812631       -0.9355128588
 C          5.7609174418        1.4769970839       -1.1713160485
 H          5.2930232386        1.2587535949       -2.1168708275
 H          6.4884399675        3.4115808485       -1.7137838113
 H          7.5372519822        3.8256125219        0.4797329383
 H          7.4028477980        2.1247974329        2.2619305828
 H          6.1881260736       -0.0163568198        1.8260297918
 H          2.9951327243       -1.0206485046       -1.7731434679
 H          3.5208909245        0.9342227945        1.2273459119
 H          1.7734882816        1.2170305903        2.9538355866
 H         -0.4041572130        0.0851297508        2.7059157702
 H         -1.5507840024       -1.8332445747        1.7538684745
 C         -1.1978566681       -2.7930865307       -0.0980084992
 C         -2.4634385404       -3.4029521992       -0.6198273754
 C         -1.4697196257       -2.8105931228       -1.5712609553
 H         -0.8898431060       -3.4825633607       -2.1879089294
 H         -1.7083249988       -1.8754945587       -2.0530691993
 H         -2.5716334010       -4.4765419652       -0.5868029099
 H         -3.3827935160       -2.8643383785       -0.4421224638
 H         -0.4416717010       -3.4851018415        0.2622793258
