  62
        -98.93706633
 C          1.0804931321        1.5885250464        0.1431968960
 C          1.6006760349        0.5637543140        0.9729200474
 C          2.4971052029       -0.4199239127        0.3440537026
 C          2.7571233564       -0.3190756455       -0.9703989067
 C          3.5787799247       -1.2364600037       -1.8418734923
 C          4.8978157151       -1.7710447534       -1.2695430097
 C          5.6448047322       -0.7942764690       -0.3495074444
 H          6.6788591730       -0.7080218799       -0.6882374113
 H          5.1959516192        0.1982510934       -0.4176239973
 C          5.6636180609       -1.2475768230        1.1119858988
 H          5.8719902059       -2.3191375075        1.1430818231
 H          6.4830115362       -0.7396413278        1.6261582810
 C          4.3872205572       -0.9620595193        1.9018103970
 H          4.4904001149       -1.4273034659        2.8849032638
 H          4.2865611774        0.1143132999        2.0649098206
 C          3.0819925096       -1.4585208841        1.2580568397
 H          3.2265430676       -2.4077638572        0.7478114145
 H          2.3503452899       -1.6018435428        2.0570705219
 H          5.5294897790       -2.0253728712       -2.1224752124
 H          4.7118603972       -2.6986094469       -0.7301002395
 H          2.9421612469       -2.0775480086       -2.1342635022
 H          3.7792283624       -0.6604371024       -2.7489951576
 O          2.2412945257        0.6825935553       -1.7336694753
 C          1.3839287200        1.6479381007       -1.2177300903
 O          1.0045316517        2.4761517782       -2.0649840428
 H         -1.1392593622        1.1295854709       -1.1426313652
 C         -1.7508773498        1.2428586715       -0.2601222420
 C         -1.2743960406        1.9546136417        0.8315225595
 C         -2.0896300440        2.0818849512        1.9505137315
 C         -3.3527281834        1.5174643940        1.9699232962
 C         -3.8116957711        0.7844111140        0.8901276229
 C         -2.9983874411        0.6381391080       -0.2269716326
 N         -3.3968790959       -0.1508316897       -1.3267318029
 S         -2.3971058994       -1.4510441446       -1.6859989613
 O         -1.1531219195       -0.9910844359       -2.2458356453
 O         -3.2002635388       -2.3124128125       -2.5269750343
 C         -2.1284402218       -2.2148960963       -0.0979214738
 C         -3.0591649257       -3.1195872120        0.3755377931
 C         -2.9103476191       -3.6240751006        1.6571934357
 C         -1.8526495496       -3.2000927237        2.4483152123
 C         -0.9281397835       -2.2906530234        1.9588435453
 C         -1.0621333833       -1.7966926647        0.6713694580
 H         -0.3545643097       -1.0921184824        0.2623879534
 H         -0.1100009773       -1.9388909284        2.5677353725
 H         -1.7457806282       -3.5795150258        3.4522004330
 H         -3.6233267674       -4.3367479521        2.0393026216
 H         -3.8684606657       -3.4173122214       -0.2715690605
 H         -4.3537739729       -0.4725202259       -1.2674493912
 H         -4.7864902233        0.3214708403        0.9118161484
 H         -3.9779382978        1.6301776201        2.8420523009
 H         -1.7206482955        2.6136061658        2.8148992716
 C          0.1106438381        2.5537907007        0.8019271568
 H          0.4494729047        2.6368745335        1.8475955377
 C          0.1283263715        3.9521991527        0.2042150350
 C         -0.9448364306        4.4627096237       -0.7048637704
 C         -0.8298346457        5.0002807188        0.6881490929
 H         -0.4636849012        6.0064838359        0.8242620312
 H         -1.5841897014        4.7021062368        1.3997349643
 H         -0.6440952057        5.0816312021       -1.5361058728
 H         -1.7672868333        3.8032371846       -0.9362377742
 H          1.1380174851        4.2818204768       -0.0179201405
 O          1.3141558109        0.4676287990        2.1966822190
