  62
        -98.93631298
 C          2.0720944095        1.5654625183        0.0642953308
 C          1.7295775049        0.4435844191       -0.7301178578
 C          2.7810611445       -0.5793960528       -0.8724448901
 C          3.9905092779       -0.3747867536       -0.3223499215
 C          5.1376285394       -1.3410623043       -0.3734214531
 C          5.1331300010       -2.2736317270        0.8455817224
 C          3.7766948320       -2.9244228865        1.1156907125
 H          3.0621733444       -2.1513867080        1.4078416672
 H          3.8999723658       -3.5890960404        1.9734147667
 C          3.2090901886       -3.7166281890       -0.0699066220
 H          2.8232002829       -4.6688494702        0.2997831980
 H          4.0064272466       -3.9451094940       -0.7780468950
 C          2.0589417730       -3.0243812257       -0.8038204832
 H          1.3028484493       -2.7055801213       -0.0823613213
 H          1.5958687308       -3.7586942422       -1.4678058493
 C          2.4401106372       -1.8119049192       -1.6623765839
 H          1.5688738961       -1.5454144050       -2.2677243611
 H          3.2580202126       -2.0769060406       -2.3355973143
 H          5.4177694552       -1.6935646013        1.7265398222
 H          5.8872395573       -3.0476105958        0.6910307728
 H          5.0762529567       -1.9233062997       -1.2907111414
 H          6.0672196619       -0.7691643445       -0.3790090055
 O          4.2971218964        0.7384931289        0.3917303706
 C          3.3469052591        1.7154139946        0.6196337426
 O          3.7505394821        2.6669198406        1.3196747021
 H         -1.1987919100        2.0475379028       -1.1221876516
 C         -1.2934419643        1.9045897034       -0.0605335864
 C         -0.2366895884        2.1889087212        0.7900979245
 C         -0.4052429920        1.9199704931        2.1478662038
 C         -1.5887972716        1.3987523830        2.6352688683
 C         -2.6442899355        1.1330957822        1.7809064637
 C         -2.4868186341        1.3835177597        0.4255625768
 N         -3.5430418479        1.1295550240       -0.4661749241
 S         -4.4413145327       -0.2706904900       -0.3174482830
 O         -5.1075468415       -0.4195604932       -1.5918151839
 O         -5.3012046786       -0.1674399113        0.8360285344
 C         -3.2695365581       -1.5929916041       -0.0833538983
 C         -2.5055232314       -1.9815426776       -1.1655759067
 C         -1.5873213310       -3.0048181909       -1.0043714772
 C         -1.4428280236       -3.6137284699        0.2328973736
 C         -2.2135156715       -3.2085068547        1.3112075742
 C         -3.1382985288       -2.1885408659        1.1542716786
 H         -3.7657785076       -1.8533865566        1.9637930663
 H         -2.0979011031       -3.6839117589        2.2720829170
 H         -0.7262088458       -4.4107208830        0.3555357442
 H         -0.9851086895       -3.3186866458       -1.8414587285
 H         -2.6467617421       -1.4913821531       -2.1152044548
 H         -3.3005451727        1.2918163526       -1.4326450034
 H         -3.5808333097        0.7423055483        2.1431219472
 H         -1.6936237411        1.2015187309        3.6913504896
 H          0.4144224282        2.1200784155        2.8244882632
 C          1.1068570149        2.7126533480        0.3510277193
 H          1.5408857938        3.2156688151        1.2291805840
 C          1.1843324745        3.7492843677       -0.7655423578
 C          0.7095380413        3.5414753488       -2.1712090961
 C          0.0213035204        4.5375016500       -1.2855082976
 H          0.1740071713        5.5867681847       -1.4905573331
 H         -0.9617861432        4.3060227829       -0.9072640692
 H          0.2251092121        2.6105419573       -2.4172118187
 H          1.3344395137        3.9158854177       -2.9699633475
 H          2.1229537895        4.2913628931       -0.6780929039
 O          0.6214281360        0.2832417556       -1.3018891064
