  62
        -98.94764039
 C         -0.7740309795       -1.2710368127        0.0477375040
 C         -1.4914018649       -0.6361198590        1.0883955673
 C         -2.4003809818        0.4409822314        0.6754080311
 C         -2.4578117957        0.7910174356       -0.6227843643
 C         -3.4186219587        1.7889403976       -1.1997150668
 C         -4.7210383197        1.1055354563       -1.6428330483
 C         -5.3308360226        0.1818118816       -0.5883729456
 H         -6.2580604400       -0.2183533239       -1.0043135146
 H         -4.6610513243       -0.6656175470       -0.4248284178
 C         -5.6260455611        0.8596728362        0.7569133748
 H         -5.6435233879        1.9427630431        0.6308564288
 H         -6.6201782807        0.5564379505        1.0920157312
 C         -4.6489684892        0.4961617922        1.8764455265
 H         -4.5609612770       -0.5909030644        1.9486525663
 H         -5.0650665959        0.8534551282        2.8223256648
 C         -3.2392195141        1.0859756445        1.7424950151
 H         -3.3103545222        2.1637637853        1.5839901242
 H         -2.7135118964        0.9100690435        2.6858398886
 H         -5.4427282301        1.8795673350       -1.9099518437
 H         -4.5130766386        0.5116858388       -2.5357382989
 H         -3.6344383166        2.5558905742       -0.4590707736
 H         -2.9529080471        2.2502305794       -2.0709189033
 O         -1.6826712401        0.2201494774       -1.5789072939
 C         -0.8414707956       -0.8398291524       -1.2771345430
 O         -0.2209233748       -1.2988112230       -2.2540729820
 H          1.5280393608       -0.2305418253        0.5548102083
 C          2.1024622192       -1.0195575867        0.0915702160
 C          1.5158585536       -2.2649351266       -0.0940763791
 C          2.2717599098       -3.2759144418       -0.6740180475
 C          3.5771932598       -3.0360735637       -1.0659656257
 C          4.1556824262       -1.7945319694       -0.8831129802
 C          3.4085852901       -0.7759931632       -0.2998037385
 N          3.9570419479        0.4995991195       -0.1381361555
 S          3.3330264228        1.6397857492        0.8950234570
 O          4.3475430122        2.6726337345        0.9265644766
 O          2.9741820867        1.0784995932        2.1767682273
 C          1.8985273728        2.2822399971        0.0616786813
 C          1.9882972370        2.5650001006       -1.2865065575
 C          0.9028791467        3.1446069487       -1.9224899600
 C         -0.2425272742        3.4420379677       -1.2010197131
 C         -0.3201545548        3.1446035553        0.1500985999
 C          0.7586832371        2.5562305734        0.7896852160
 H          0.7328939184        2.2983922443        1.8373128103
 H         -1.2121157917        3.3699491074        0.7115166394
 H         -1.0799272609        3.9102764053       -1.6933081508
 H          0.9544345433        3.3661448929       -2.9763714621
 H          2.8975186679        2.3296620789       -1.8143262083
 H          4.9430521465        0.5984099357       -0.3214704986
 H          5.1727572861       -1.6075201206       -1.1912827782
 H          4.1529216416       -3.8287443654       -1.5191177957
 H          1.8390129104       -4.2515026316       -0.8225096493
 C          0.0975136491       -2.4676520712        0.3763580778
 H          0.1117059122       -2.5288635223        1.4757792292
 C         -0.5421147901       -3.7282221539       -0.1724738077
 C         -0.3886953680       -5.0362486566        0.5428561142
 C         -1.7066986772       -4.3238550694        0.5584241686
 H         -2.5239747100       -4.7328535585       -0.0166250860
 H         -2.0161220037       -3.8383566935        1.4727242411
 H         -0.3034656505       -5.9386970965       -0.0436629375
 H          0.1921181298       -5.0436563860        1.4529083061
 H         -0.5752671925       -3.7359390864       -1.2565586219
 O         -1.3903615337       -0.9661074136        2.3021213571
