  62
        -98.94353245
 C         -1.8189803079       -1.1203476740        0.4646551066
 C         -2.7601322085       -1.0268092415       -0.5897667324
 C         -4.0535062038       -0.4183928022       -0.2402137507
 C         -4.2635717856        0.0220214591        1.0130239318
 C         -5.5117355760        0.7084487639        1.4850810859
 C         -5.4010512482        2.2317537880        1.3308043487
 C         -4.9192248546        2.6795858990       -0.0492844415
 H         -4.9093868369        3.7718003725       -0.0515005538
 H         -3.8871302157        2.3502732040       -0.1920976703
 C         -5.7780749710        2.1736498464       -1.2167552115
 H         -6.7531183851        1.8534620214       -0.8475935212
 H         -5.9493512208        3.0009799481       -1.9086729821
 C         -5.1448972256        1.0401416367       -2.0258366899
 H         -5.7255763169        0.9127749017       -2.9432986815
 H         -4.1296801550        1.3210401460       -2.3178157811
 C         -5.0855696159       -0.3247494995       -1.3285534654
 H         -6.0742807072       -0.5865324335       -0.9464243488
 H         -4.7982495071       -1.0671536999       -2.0787233103
 H         -4.6959496456        2.6055920392        2.0770004327
 H         -6.3784010191        2.6717878283        1.5372456199
 H         -6.3617963923        0.3362921022        0.9166481080
 H         -5.6585204927        0.4688817926        2.5396491758
 O         -3.3273697735       -0.0638248625        1.9927162903
 C         -2.0843863805       -0.6156302246        1.7397394662
 O         -1.3092775539       -0.6027553504        2.7186597263
 H          0.8361680543        0.3861647988        1.2500038310
 C          0.9883962355        0.3237459536        0.1796908977
 C          0.3942713706       -0.7163428602       -0.5243373725
 C          0.5815916533       -0.7826026638       -1.8988090024
 C          1.3438516747        0.1741189411       -2.5475490498
 C          1.9450716133        1.2009658474       -1.8420391658
 C          1.7622937140        1.2740322423       -0.4672705553
 N          2.4294052157        2.2835671098        0.2645382922
 S          4.1039701300        2.1366108994        0.2160726183
 O          4.5924989708        2.7776729242        1.4162262346
 O          4.5873244234        2.6726928858       -1.0307449015
 C          4.3773161623        0.3743227683        0.2720958506
 C          4.1879865264       -0.2765122679        1.4749626340
 C          4.2832465082       -1.6580507459        1.5122311709
 C          4.5535823717       -2.3619457717        0.3485730599
 C          4.7445823566       -1.6934315355       -0.8505900952
 C          4.6542935086       -0.3115572574       -0.8931080198
 H          4.7935162730        0.2462958739       -1.8042210227
 H          4.9545149856       -2.2443590115       -1.7529159487
 H          4.6162507126       -3.4385877681        0.3779715736
 H          4.1359827192       -2.1799585500        2.4444301214
 H          3.9783892738        0.3037548289        2.3597531385
 H          2.1257201392        2.3307508228        1.2274705959
 H          2.5615682927        1.9404165008       -2.3274327933
 H          1.4767767819        0.1153161071       -3.6169677920
 H          0.1137366493       -1.5737892056       -2.4604297234
 C         -0.4344956255       -1.7122098093        0.2493544361
 H          0.0070374742       -1.7994375051        1.2513245699
 C         -0.4660921109       -3.0873361615       -0.3824318709
 C          0.7908459180       -3.9034998072       -0.3777870224
 C         -0.3611265639       -4.2954457575        0.4965938653
 H         -0.9337482960       -5.1725633111        0.2347294024
 H         -0.2747723968       -4.1345200843        1.5614751730
 H          1.0128892386       -4.5141494893       -1.2390579952
 H          1.6603762352       -3.4672416333        0.0911196955
 H         -1.1164476649       -3.1547769419       -1.2444535450
 O         -2.5489692857       -1.4299463487       -1.7621094540
