  62
        -98.93082083
 C         -2.2502871503       -0.6781379411       -0.2162520793
 C         -3.5845343202       -1.1587030412       -0.2931679492
 C         -4.6241554404       -0.1697350514       -0.5980971192
 C         -4.2667585405        1.1127372987       -0.7916611092
 C         -5.2202327307        2.2359619985       -1.0775623091
 C         -5.6913429407        2.9129006885        0.2169748409
 C         -6.1831922406        1.9327115584        1.2817847709
 H         -5.3411985105        1.3256734885        1.6220861109
 H         -6.5203713006        2.5230766483        2.1364249309
 C         -7.3181354805        1.0090695283        0.8180101210
 H         -7.7858731105        1.4178156982       -0.0783032990
 H         -8.0832123504        0.9757821581        1.5964360510
 C         -6.8899083303       -0.4352318617        0.5519578309
 H         -6.3353144602       -0.8174955016        1.4124421209
 H         -7.7920189502       -1.0437927718        0.4473564610
 C         -6.0413563403       -0.6588258716       -0.7060675191
 H         -5.9727985802       -1.7376388416       -0.8732685291
 H         -6.5372030404       -0.2088104816       -1.5687091791
 H         -6.4897464308        3.6142958084       -0.0319896990
 H         -4.8565251508        3.4811735486        0.6335371109
 H         -4.7056222808        2.9729067186       -1.6964692291
 H         -6.0745332207        1.8464709184       -1.6280382291
 O         -2.9832029106        1.5394635188       -0.7055338092
 C         -1.9376878205        0.6647511190       -0.4242353393
 O         -0.8265892505        1.2254869491       -0.3866799693
 H          1.2309101997       -0.3713296006       -0.4805969394
 C          1.0527322197       -0.5898438307        0.5568308806
 C         -0.0974463702       -1.2475729508        0.9692836706
 C         -0.2850743701       -1.4286474909        2.3378448106
 C          0.6385799799       -0.9705820507        3.2596640806
 C          1.7899135898       -0.3322010606        2.8370497606
 C          1.9882297697       -0.1439073905        1.4757323806
 N          3.1837979996        0.4819681496        1.0291541705
 S          3.7653327396        0.0979259097       -0.4921932895
 O          3.1846317995        0.9202996496       -1.5345656095
 O          3.6640798798       -1.3309342403       -0.6526380395
 C          5.4768693396        0.5545055199       -0.2790807496
 C          5.9182474794        1.7824353900       -0.7326205096
 C          7.2435480193        2.1364882202       -0.5335124096
 C          8.1013346095        1.2611573903        0.1146384603
 C          7.6447773397        0.0309362302        0.5639747403
 C          6.3209093597       -0.3276698400        0.3677828804
 H          5.9227698098       -1.2750030700        0.6920129604
 H          8.3152562398       -0.6485899797        1.0650127203
 H          9.1324028395        1.5383696504        0.2677020703
 H          7.6008743092        3.0912420602       -0.8846781396
 H          5.2188508393        2.4267277999       -1.2412338595
 H          3.2162088495        1.4752702296        1.2051213705
 H          2.5223689498        0.0267768495        3.5419492705
 H          0.4619358400       -1.1184749508        4.3142359006
 H         -1.1819525700       -1.9278286910        2.6787950607
 C         -1.1792486101       -1.7328568509        0.0438847207
 H         -1.7189828900       -2.5273216410        0.5845917007
 C         -0.7851659801       -2.3699562409       -1.2867079894
 C         -0.0776820502       -1.6654519008       -2.4042712694
 C          0.5937179299       -2.7976979107       -1.6839728194
 H          0.6971457900       -3.7369497707       -2.2076856794
 H          1.4275582899       -2.5674857406       -1.0387432395
 H         -0.4326892503       -1.8335142408       -3.4117682294
 H          0.2750997396       -0.6571799907       -2.2468211394
 H         -1.5880942300       -3.0271303310       -1.6122299693
 O         -3.8870895801       -2.3693499013       -0.1159768092
