  62
        -98.93892964
 C         -1.8052378380       -0.9741465913       -0.1805546672
 C         -2.9598418087       -1.0702780398        0.6375045736
 C         -4.1955213161       -0.4244312868        0.1566322544
 C         -4.1689923887        0.2127533961       -1.0283232185
 C         -5.2778801458        0.9662330816       -1.7137582343
 C         -5.5390166990        2.3433382770       -1.0840208712
 C         -5.5820050654        2.3531918244        0.4416167894
 H         -4.6323292162        1.9801522962        0.8296204953
 H         -5.6762485054        3.3936628704        0.7638085273
 C         -6.7315415804        1.5648977224        1.0651118222
 H         -7.6796244338        1.9562419352        0.6895630784
 H         -6.7011722455        1.7471517551        2.1424105918
 C         -6.7052231906        0.0510709864        0.8407368102
 H         -7.0578299512       -0.2064003623       -0.1544758223
 H         -7.4140328935       -0.3939296312        1.5451218375
 C         -5.3550211733       -0.6069658869        1.1058046648
 H         -4.9919077363       -0.2984273922        2.0928335078
 H         -5.5034362676       -1.6908903962        1.1813051554
 H         -4.7383003463        3.0172126794       -1.3990348043
 H         -6.4797285426        2.7301214658       -1.4796913967
 H         -4.9628122416        1.1121911521       -2.7494873048
 H         -6.1846975013        0.3688168629       -1.7252038366
 O         -3.0373240039        0.2817402436       -1.7831098802
 C         -1.8407418647       -0.2922645893       -1.3958547485
 O         -0.9192311761       -0.1165025966       -2.2202592383
 O         -2.9646239687       -1.6818423335        1.7396248212
 C         -0.5502262307       -1.6603683692        0.3315946305
 C          0.4190548843       -0.6812978935        0.9490227421
 C          0.7894592817       -0.7860297516        2.2843636608
 C          1.7083476910        0.0918067967        2.8339390466
 C          2.2764073473        1.0902792694        2.0634930967
 C          1.9058234880        1.2065941604        0.7301430021
 C          0.9907704127        0.3222970221        0.1797234154
 H          0.7075378055        0.4200440864       -0.8577497946
 N          2.4953230169        2.2095024407       -0.0701082012
 S          4.1633839618        2.0941474970       -0.2118922608
 O          4.7763397354        2.6305858239        0.9774352565
 O          4.5011437250        2.7553069265       -1.4523399954
 C          4.4737455946        0.3410021797       -0.3185856933
 C          4.1019860335       -0.3148626508       -1.4752523278
 C          4.2621720896       -1.6886625371       -1.5472363739
 C          4.7812344440       -2.3800854574       -0.4633128290
 C          5.1489388825       -1.7068643379        0.6909882978
 C          4.9921531132       -0.3323863135        0.7684989739
 H          5.2641140583        0.2303474363        1.6462097491
 H          5.5517901815       -2.2482477675        1.5315543418
 H          4.9004189906       -3.4507130081       -0.5195640715
 H          3.9759397794       -2.2127953071       -2.4452499164
 H          3.7030913651        0.2546508339       -2.2998772230
 H          2.0778481505        2.2641795080       -0.9889325050
 H          3.0007845258        1.7784884608        2.4684242328
 H          1.9857923043       -0.0027609072        3.8725679804
 H          0.3440700379       -1.5573156964        2.8954109484
 H         -0.8993683732       -2.3314392538        1.1275253412
 C          0.1514690160       -2.4919797689       -0.7258280140
 C          1.0754173588       -3.5882878340       -0.2920457018
 C         -0.2450965844       -3.9237594096       -0.9165171593
 H         -0.2591791067       -4.3244739787       -1.9189768737
 H         -1.0269933322       -4.3141439516       -0.2813649357
 H          1.9735175908       -3.7580509794       -0.8645540155
 H          1.1909624905       -3.7534847147        0.7680991815
 H          0.4170817217       -1.9274226012       -1.6098819235
