  62
        -98.93803719
 C         -2.5472227170       -0.4479288928        0.1071158817
 C         -2.1800510047       -1.4666488313       -0.8023318828
 C         -1.3367388048       -2.5421446332       -0.2670433556
 C         -0.9852066682       -2.5131691082        1.0315062893
 C         -0.0248547138       -3.4617868994        1.6913579548
 C          1.4209147258       -3.0393678808        1.3563771198
 C          2.1928211125       -4.0366352078        0.4906851171
 H          3.0880945575       -3.5249739999        0.1310550040
 H          2.5153283999       -4.8722484379        1.1161923557
 C          1.4372445076       -4.6172552705       -0.7082937107
 H          0.7700908145       -5.4122193838       -0.3707005715
 H          2.1820802119       -5.0875472028       -1.3539465243
 C          0.6252899806       -3.6191819208       -1.5438311786
 H          1.0230313924       -2.6076166728       -1.4407423708
 H          0.7285570167       -3.8930288037       -2.5963904449
 C         -0.8829822726       -3.6048671899       -1.2279821449
 H         -1.4320702176       -3.4027979430       -2.1524958510
 H         -1.1938533627       -4.5887894861       -0.8655930428
 H          1.9777718400       -2.8885922932        2.2830864621
 H          1.3867521755       -2.0666288604        0.8582095584
 H         -0.1961190238       -3.4040420606        2.7664973902
 H         -0.2172237303       -4.4790975711        1.3574793029
 O         -1.4097235823       -1.5516278970        1.8905973507
 C         -2.1438925624       -0.4654277532        1.4425967207
 O         -2.3933860114        0.3846285742        2.3187603950
 H         -0.6737884471        0.7330355702       -1.0848770258
 C         -0.9593883030        1.7086102874       -0.7131376661
 C         -2.2780084159        1.9446281856       -0.3399570185
 C         -2.6125905525        3.2159351363        0.1047814691
 C         -1.6455111106        4.2043660681        0.2028092674
 C         -0.3245672114        3.9433996724       -0.1132586428
 C          0.0152184543        2.6777825444       -0.5738292041
 N          1.3792386716        2.3478403708       -0.8290082915
 S          1.8398610554        0.7988840253       -0.3686127800
 O          1.6694197047       -0.1537495374       -1.4492097510
 O          1.2008323628        0.4898728118        0.8849271372
 C          3.5822793782        1.0653111382       -0.0987278270
 C          3.9502630687        1.8856674798        0.9505311624
 C          5.2957736306        2.1305694972        1.1707757745
 C          6.2472502988        1.5529002238        0.3425684329
 C          5.8632836276        0.7301861195       -0.7048066336
 C          4.5176319152        0.4837815680       -0.9313663723
 H          4.1719805906       -0.1502495376       -1.7321134579
 H          6.6044128805        0.2805265843       -1.3458058446
 H          7.2943274525        1.7445950174        0.5162448909
 H          5.5976320190        2.7693844453        1.9850998727
 H          3.1741491811        2.3046032903        1.5700712240
 H          1.6840981591        2.5525472374       -1.7701990827
 H          0.4386989154        4.6964566103       -0.0035753959
 H         -1.9241078153        5.1859074973        0.5548929120
 H         -3.6303220888        3.4305996242        0.3883237579
 C         -3.2471370660        0.7892560884       -0.4289895481
 H         -3.4357857723        0.5796556055       -1.4932691073
 C         -4.5678222592        1.0441940868        0.2623993630
 C         -5.6718349107        1.7531008498       -0.4627361741
 C         -5.7783662827        0.2842404716       -0.1878178292
 H         -6.4802959080       -0.0542478568        0.5591387907
 H         -5.6530398829       -0.4027773289       -1.0121006306
 H         -5.4833429847        2.0643375519       -1.4791350044
 H         -6.3068845690        2.4239519733        0.0956783348
 H         -4.4526658786        1.2193940459        1.3256387290
 O         -2.5293640473       -1.4632428500       -2.0165970909
