  62
        -98.93518038
 C          1.9479921806        1.1926310157        0.0672760688
 C          2.7699855831        0.6554495945        1.0867766974
 C          3.9657668712       -0.1006122427        0.6657947973
 C          4.1857253578       -0.2766651718       -0.6501249844
 C          5.3029298510       -1.0355030459       -1.3155450885
 C          5.1099148998       -2.5588647646       -1.2427657389
 C          4.6549938804       -3.0853966341        0.1159597513
 H          4.4485654167       -4.1534031109        0.0057213582
 H          3.7154077018       -2.6022672992        0.3910032911
 C          5.6637197824       -2.9190378724        1.2501282888
 H          6.5876977392       -3.4381062352        0.9857483910
 H          5.2458870008       -3.4139918982        2.1306657408
 C          6.0082638726       -1.4784633676        1.6340840997
 H          6.6995309504       -1.0373926171        0.9210129970
 H          6.5334595350       -1.5148455288        2.5930404151
 C          4.8024545850       -0.5655444487        1.8335142806
 H          5.1383020939        0.3485710094        2.3383181149
 H          4.1056324819       -1.0400189490        2.5340155895
 H          6.0474620086       -3.0397500941       -1.5268546070
 H          4.3511759295       -2.8381992263       -1.9781013324
 H          6.2580556570       -0.7447011998       -0.8883248423
 H          5.3029585552       -0.7359547049       -2.3659378824
 O          3.3355722210        0.2093360783       -1.5978651080
 C          2.2049607216        0.9454038519       -1.2818087486
 O          1.5405724570        1.3006039107       -2.2720167946
 O          2.5137374950        0.7913510068        2.3141824059
 C          0.7224451269        1.9819877979        0.4916626556
 C         -0.4927528463        1.4867504116       -0.2511696066
 C         -1.2641979211        2.2812399884       -1.0877652209
 C         -2.3532240941        1.7454715557       -1.7537991173
 C         -2.7011309468        0.4173512258       -1.5954869264
 C         -1.9449692383       -0.3831501893       -0.7477960499
 C         -0.8582650575        0.1566716662       -0.0777839243
 H         -0.2634628968       -0.4707886488        0.5751668386
 N         -2.2947978154       -1.7311592096       -0.5699248748
 S         -3.9112023385       -2.1297117288       -0.4176708288
 O         -3.9240058184       -3.3547319764        0.3512897096
 O         -4.5222865060       -2.2003144604       -1.7216288928
 C         -4.6422092797       -0.7982106920        0.5187528367
 C         -4.1486940329       -0.5437552046        1.7831040225
 C         -4.6859207580        0.5030560936        2.5141745257
 C         -5.7029936086        1.2736808170        1.9714186273
 C         -6.1917486900        1.0017772171        0.7032750904
 C         -5.6565625324       -0.0429397860       -0.0332900351
 H         -6.0051520096       -0.2874709527       -1.0234699785
 H         -6.9840902177        1.6009259407        0.2845531716
 H         -6.1166705138        2.0899317820        2.5422174985
 H         -4.3074217272        0.7150773386        3.5012680371
 H         -3.3613058203       -1.1649189377        2.1793638575
 H         -1.7233523998       -2.2251462496        0.0985060075
 H         -3.5303323569       -0.0182757775       -2.1287827547
 H         -2.9349713641        2.3703314587       -2.4140021728
 H         -0.9957859563        3.3127815177       -1.2433499843
 H          0.5942015516        1.7266076675        1.5571046225
 C          0.8963922887        3.4918185027        0.4313097276
 C          2.2473681755        4.1193519949        0.5963465873
 C          1.5480547977        4.1839790565       -0.7267026979
 H          1.1466237675        5.1347421883       -1.0460572628
 H          1.9133611805        3.5714417055       -1.5357131925
 H          2.3263761090        5.0218599890        1.1836687991
 H          3.0977450351        3.4598260655        0.6930378162
 H          0.0677384287        4.0111532607        0.9027583196
