  62
        -98.94124031
 C         -2.3894598113       -1.0457314682       -0.5931714509
 C         -3.4956245109       -0.6007043677        0.1786367793
 C         -4.0226287103        0.7320177126       -0.1365751105
 C         -3.4455434001        1.4486037624       -1.1178736606
 C         -3.8337074094        2.8454531626       -1.5047821704
 C         -3.0179882087        3.8838693321       -0.7218725605
 C         -2.9888919186        3.6384247020        0.7869350395
 H         -2.4387330491        2.7154248417        0.9880494394
 H         -2.4155919881        4.4519670017        1.2371649895
 C         -4.3734227186        3.5610884227        1.4458226297
 H         -4.3560260481        4.1511217726        2.3644757798
 H         -5.1213555384        4.0060252931        0.7885793299
 C         -4.8141989292        2.1481117429        1.8324738697
 H         -4.0231599494        1.6641752525        2.4113576196
 H         -5.6905720991        2.2308573333        2.4807420899
 C         -5.1925479199        1.2251816532        0.6672826997
 H         -5.9185804097        1.7248908636        0.0229165799
 H         -5.6629459903        0.3327682834        1.0901189797
 H         -1.9886212888        3.8656256316       -1.0880587206
 H         -3.4337673383        4.8728409323       -0.9232006303
 H         -4.8963930893        2.9865456831       -1.3175714602
 H         -3.6403215595        2.9738121326       -2.5710566504
 O         -2.3988873004        0.9879595219       -1.8454612108
 C         -1.8334598811       -0.2546265385       -1.5985261109
 O         -0.8700178213       -0.5132323489       -2.3484728611
 O         -4.0224096411       -1.2947606075        1.0888875294
 C         -1.8204681520       -2.4122564285       -0.2425215911
 C         -0.5857467417       -2.2394247192        0.6098083788
 C         -0.6140580816       -2.5273393493        1.9695007387
 C          0.5022321086       -2.3126539699        2.7592221386
 C          1.6667905688       -1.8030652205        2.2128693184
 C          1.7006661487       -1.5036696704        0.8572542684
 C          0.5861947885       -1.7340497698        0.0647307386
 H          0.6137365884       -1.4777591998       -0.9839955914
 N          2.8784449689       -0.9635726810        0.2839554583
 S          3.2988535198        0.5723118587        0.8568757883
 O          3.6305264500        0.4602889285        2.2545933382
 O          2.2690067602        1.5355844893        0.5257390685
 C          4.7742388798        0.8884462280       -0.0900069320
 C          5.9502279195        0.2764603674        0.2995526478
 C          7.0967828195        0.4940453768       -0.4472838224
 C          7.0483653398        1.3147021469       -1.5645348523
 C          5.8604564800        1.9216955176       -1.9427215121
 C          4.7092024900        1.7062403481       -1.2011741919
 H          3.7645240502        2.1608181686       -1.4550458317
 H          5.8250065402        2.5603496976       -2.8106847620
 H          7.9421019398        1.4843679765       -2.1439418224
 H          8.0227589593        0.0248795463       -0.1565937325
 H          5.9414288194       -0.3454326727        1.1790040278
 H          2.7727015788       -0.8909926409       -0.7214576917
 H          2.5338142390       -1.6078955710        2.8220034283
 H          0.4641821587       -2.5396379200        3.8140651586
 H         -1.5277191118       -2.9008484189        2.4092938489
 H         -2.5900277721       -2.8908865582        0.3777870990
 C         -1.5625295726       -3.2913412086       -1.4492961112
 C         -1.4375328434       -4.7715773587       -1.2528447913
 C         -2.6464979032       -4.2051279980       -1.9333410510
 H         -2.7585595834       -4.3511607579       -2.9971616610
 H         -3.5818642631       -4.2012061775       -1.3929305009
 H         -0.7170265937       -5.3105477490       -1.8484120514
 H         -1.5531093734       -5.1529520187       -0.2496198213
 H         -0.9367782725       -2.8271183189       -2.1999305112
