  62
        -98.94441105
 C         -1.9332882001       -1.0727309797       -0.2165836693
 C         -2.4370384501        0.0815682699       -0.8625073202
 C         -3.8939461401        0.2670162299       -0.7902374003
 C         -4.6475850701       -0.6571225097       -0.1669683996
 C         -6.1323511601       -0.5624142195        0.0296476803
 C         -6.4705669501        0.1233638814        1.3608836098
 C         -5.7169845302        1.4337659116        1.5892248388
 H         -6.0563424602        1.8418855923        2.5437232285
 H         -4.6507093602        1.2196915417        1.6920213390
 C         -5.9166513702        2.4817144908        0.4854499480
 H         -6.0967195302        3.4521622411        0.9526700973
 H         -6.8017135402        2.2363752503       -0.1026436618
 C         -4.7190375702        2.6547648801       -0.4508708621
 H         -4.8802308002        3.5577108197       -1.0459265027
 H         -3.8111138802        2.8096464306        0.1378598678
 C         -4.4652331802        1.5010540994       -1.4294397512
 H         -5.3842073401        1.2675403190       -1.9709117510
 H         -3.7159710802        1.8375752589       -2.1521583615
 H         -7.5455872601        0.3097955814        1.3901364997
 H         -6.2217899101       -0.5608539580        2.1753472903
 H         -6.5441438401       -1.5729487495        0.0364244911
 H         -6.5692369001       -0.0081013602       -0.7985221701
 O         -4.1290985601       -1.7716715592        0.4092517612
 C         -2.7627749201       -1.9993402092        0.4143987614
 O         -2.4152553301       -3.0421129988        1.0046801922
 O         -1.7116113901        0.9159633794       -1.4641306908
 C         -0.4392468201       -1.3440172996       -0.2110925691
 C          0.2960592599       -0.1572356592        0.3616236700
 C         -0.1290527801        0.3669112017        1.5806276196
 C          0.4938546898        1.4678656621        2.1334482888
 C          1.5673574698        2.0612859417        1.4917548784
 C          2.0082330898        1.5399734908        0.2824577588
 C          1.3775415799        0.4329308104       -0.2720433604
 H          1.7309852599        0.0648499697       -1.2199888801
 N          3.0884251098        2.1283927303       -0.3946120917
 S          4.2862890298        1.1718532898       -1.0597980209
 O          5.3966404698        2.0752603197       -1.2666438416
 O          3.7966897399        0.4880004690       -2.2286334204
 C          4.6815386499        0.0048275608        0.2291690999
 C          5.4459200899        0.4450488616        1.2924459896
 C          5.7080469599       -0.4264997476        2.3364392302
 C          5.1967245499       -1.7152076177        2.3036324512
 C          4.4334492399       -2.1421316885        1.2283076315
 C          4.1707312299       -1.2756769293        0.1787377409
 H          3.5851352599       -1.5723402599       -0.6755451989
 H          4.0388854999       -3.1454896285        1.2033230323
 H          5.3963165399       -2.3924872171        3.1190197517
 H          6.3063613799       -0.0999669870        3.1716670600
 H          5.8339319098        1.4505747316        1.2749259589
 H          3.4856854898        2.9306511107        0.0718424178
 H          2.0502900298        2.9278111220        1.9171245878
 H          0.1436184498        1.8687220028        3.0727789185
 H         -0.9689145001       -0.0962957279        2.0812016800
 H         -0.2891920801       -2.2009030691        0.4620124815
 C          0.0197948599       -1.7327967206       -1.6008129188
 C          1.1519354299       -2.6969003008       -1.7815290281
 C         -0.2513945501       -3.1221426910       -2.0913326678
 H         -0.5373141701       -3.2577090018       -3.1235950077
 H         -0.7432912601       -3.8000438505       -1.4087215073
 H          1.8377921399       -2.5395046214       -2.6011752482
 H          1.6076591399       -3.1012926501       -0.8901161978
 H         -0.0843661401       -0.9260554712       -2.3178557794
