  62
        -98.93773778
 C         -2.5600599754        0.1539467542        0.5079607842
 C         -2.0719944275        0.7714708271       -0.6665935052
 C         -1.3264735284        2.0305237823       -0.4910719310
 C         -1.1604092962        2.5201144544        0.7501246291
 C         -0.3620999590        3.7242929537        1.1765096896
 C          1.0759664370        3.7593301331        0.6313337350
 C          1.3110535071        4.8957278262       -0.3640343497
 H          0.7995069916        5.7889086587        0.0008515671
 H          2.3797599443        5.1187418869       -0.3942000831
 C          0.8591235148        4.5985794920       -1.7922186757
 H          1.5309895058        3.8583932004       -2.2320144084
 H          0.9615413384        5.5204455565       -2.3699163299
 C         -0.5754076305        4.0844416803       -1.9394142222
 H         -1.2465800775        4.6077915381       -1.2603738196
 H         -0.9050248603        4.3166735935       -2.9546334971
 C         -0.7125639652        2.5675256042       -1.7549530522
 H         -1.3365115891        2.1572529900       -2.5560669546
 H          0.2623184277        2.0795592374       -1.8640040274
 H          1.3162441167        2.7959712006        0.1779632262
 H          1.7552960110        3.8934577928        1.4751717387
 H         -0.8946913959        4.6338858868        0.8921518136
 H         -0.3484055970        3.6905561417        2.2680504254
 O         -1.7303834705        1.9386805930        1.8468318705
 C         -2.3908280470        0.7272778341        1.7648493805
 O         -2.7820169934        0.2731288807        2.8614228481
 H         -0.5205909120       -1.2149396460        0.9141458762
 C         -0.7656374300       -1.9544964343        0.1651948775
 C         -2.0915097756       -2.1433336656       -0.2047877274
 C         -2.3814830301       -3.1179476603       -1.1501387034
 C         -1.3602025117       -3.8468971041       -1.7363016500
 C         -0.0376632559       -3.6085560131       -1.4113513382
 C          0.2607743350       -2.6509496396       -0.4477197815
 N          1.5909811935       -2.3828179997       -0.0732936684
 S          2.0000580214       -0.7940041575        0.3352370197
 O          1.5890182328       -0.5395242101        1.6940332312
 O          1.5247869399        0.1316078196       -0.6675263304
 C          3.7784822187       -0.9128066105        0.2675849517
 C          4.4595009530       -0.4057059593       -0.8224300166
 C          5.8388449113       -0.5364595477       -0.8715787438
 C          6.5090972803       -1.1719273496        0.1626092197
 C          5.8118003624       -1.6754023480        1.2510898771
 C          4.4333431983       -1.5459309342        1.3072639618
 H          3.8491374087       -1.9114182742        2.1356382895
 H          6.3361639462       -2.1666619881        2.0547149674
 H          7.5820055676       -1.2735068861        0.1216289451
 H          6.3832476206       -0.1431992619       -1.7148539831
 H          3.8958357059        0.0843800696       -1.6000751787
 H          2.2609917910       -2.7710084560       -0.7240594759
 H          0.7572074407       -4.1535017935       -1.8975346670
 H         -1.5975521746       -4.5957769312       -2.4767217094
 H         -3.4041593642       -3.2937182798       -1.4417180056
 C         -3.1335878310       -1.2496366679        0.4293063954
 H         -3.2910364591       -1.5758973387        1.4684122831
 C         -4.4618848188       -1.2623544452       -0.2968243238
 C         -5.5028211317       -2.2838764964        0.0479643270
 C         -5.6952326922       -0.8530887849        0.4487844444
 H         -6.4386381796       -0.2652308872       -0.0680673674
 H         -5.5767276364       -0.5899343012        1.4900646715
 H         -6.1202130170       -2.6784299003       -0.7448579273
 H         -5.2660250362       -2.9975549442        0.8226261778
 H         -4.3707659462       -0.9461224879       -1.3294640916
 O         -2.2329464927        0.2803741467       -1.8158115482
