  62
        -98.94911197
 C          1.2721130993        1.5433217715        0.5453330896
 C          2.2211853886        1.2080334263       -0.4506988138
 C          3.1993560109        0.1799914425       -0.0762644515
 C          3.1555072905       -0.3748093683        1.1482885703
 C          4.0668856306       -1.4541669905        1.6646420928
 C          3.6235189194       -2.8676823770        1.2616331011
 C          3.8663277494       -3.2325758719       -0.2035918541
 H          4.8999068862       -3.0067965096       -0.4697074533
 H          3.7346173044       -4.3132292588       -0.2882998191
 C          2.9138928725       -2.5460137671       -1.1929885009
 H          2.5533240045       -3.2808989171       -1.9174028690
 H          2.0317321998       -2.1820411817       -0.6592885987
 C          3.5400718455       -1.3995401977       -1.9883984227
 H          4.3142665375       -1.7961812853       -2.6498143608
 H          2.7603134479       -0.9520107458       -2.6103236273
 C          4.1568306244       -0.2878806725       -1.1297901729
 H          5.0858155579       -0.6329521468       -0.6766090015
 H          4.3765785837        0.5623336227       -1.7804695757
 H          4.1733759344       -3.5748999320        1.8874353597
 H          2.5591971195       -2.9789016585        1.4857911012
 H          5.0859976698       -1.2765623645        1.3201749474
 H          4.0491355461       -1.3844888103        2.7544764985
 O          2.2486243661       -0.0011774728        2.0891003802
 C          1.2581917164        0.9215718468        1.7929225223
 O          0.4350296185        1.1055765919        2.7146213606
 O          2.2452848486        1.7272874755       -1.5968855116
 C          0.1328366126        2.4890023273        0.2147265691
 C         -0.7204704466        1.8902585777       -0.8807936898
 C         -1.3697218731        2.6457092798       -1.8494592912
 C         -2.1483866970        2.0249196531       -2.8116270673
 C         -2.3126414285        0.6509892560       -2.8231732068
 C         -1.6705253763       -0.1124337418       -1.8551148451
 C         -0.8881532994        0.5134677944       -0.8997357458
 H         -0.3754856631       -0.0940913918       -0.1715545063
 N         -1.7876419138       -1.5095488057       -1.8187723592
 S         -1.7968157619       -2.3052469878       -0.3482066152
 O         -0.4808257925       -2.3133605311        0.2391912373
 O         -2.3561593843       -3.6046386526       -0.6555451286
 C         -2.9507013664       -1.3808898395        0.6503086070
 C         -4.2871740376       -1.4755354621        0.3091833511
 C         -5.2183707553       -0.7356205605        1.0175802051
 C         -4.7995406904        0.0909149080        2.0498594720
 C         -3.4572942818        0.1708957630        2.3838358445
 C         -2.5200391314       -0.5707458610        1.6802475391
 H         -1.4711346018       -0.5160658647        1.9279642949
 H         -3.1202039968        0.8093997958        3.1850373325
 H         -5.5217952852        0.6735733281        2.5995014758
 H         -6.2637574731       -0.8018431250        0.7629703148
 H         -4.5726575360       -2.1387782092       -0.4911382431
 H         -2.4458355654       -1.9070212010       -2.4719088051
 H         -2.9188568073        0.1726316127       -3.5767877016
 H         -2.6398837079        2.6221106017       -3.5645219758
 H         -1.2582312618        3.7177175259       -1.8565173506
 H         -0.4861674968        2.5497048109        1.1230521229
 C          0.6485341656        3.8738713556       -0.1168239389
 C         -0.1622997315        5.0863178179        0.2269812911
 C          1.0791513401        4.7703798816        1.0039572291
 H          1.9521417228        5.3896283067        0.8631273785
 H          0.9722078300        4.3905000310        2.0099504298
 H         -0.1402534335        5.9289466392       -0.4476149165
 H         -1.1137400670        4.9325668251        0.7134446937
 H          1.2384105695        3.8900320508       -1.0255682612
