  62
        -98.94667671
 C          1.1660124417        1.3591734846        0.2865953927
 C          1.3642740481        0.3285966469       -0.6641444091
 C          2.3477255303       -0.6983991279       -0.2958124714
 C          2.9334160322       -0.6704366099        0.9139490354
 C          3.9443689025       -1.6551273902        1.4353122639
 C          5.3855277606       -1.3471826682        1.0055738728
 C          5.6989470323       -1.6322626727       -0.4639682960
 H          6.7840408203       -1.5829195320       -0.5748518845
 H          5.3937663284       -2.6500131132       -0.7090856826
 C          5.0578305298       -0.6479920984       -1.4524496401
 H          4.7444717902        0.2524122855       -0.9190279147
 H          5.8012411538       -0.3384103297       -2.1906154958
 C          3.8619890366       -1.2089324717       -2.2226668040
 H          4.1923873435       -2.0283080765       -2.8649615303
 H          3.4677011046       -0.4169005686       -2.8643932276
 C          2.7179632710       -1.7144472365       -1.3334088649
 H          1.8406975118       -1.8817010103       -1.9624982213
 H          2.9983767018       -2.6561227556       -0.8633510712
 H          5.6014566284       -0.2996228667        1.2279783470
 H          6.0479819747       -1.9600939266        1.6211991769
 H          3.8930051630       -1.6084922023        2.5252296342
 H          3.6820478444       -2.6637236368        1.1148278993
 O          2.6455478246        0.2828372632        1.8381972379
 C          1.7958056373        1.3310891611        1.5361318343
 O          1.6755003990        2.1681685100        2.4528384651
 H         -1.2538822283        0.8550294408       -1.3925380603
 C         -1.8116535703        1.3066016548       -0.5854463019
 C         -1.1793804523        2.2155797916        0.2511797125
 C         -1.9031706099        2.7629333001        1.3038395279
 C         -3.2262265112        2.4106198144        1.5110788402
 C         -3.8514120916        1.4989892409        0.6784467826
 C         -3.1309963954        0.9408554077       -0.3689589421
 N         -3.7425780921       -0.0394555378       -1.1880597694
 S         -3.9569756532       -1.5181242593       -0.4304554024
 O         -4.3830871695       -2.4366284455       -1.4610680984
 O         -4.8602292966       -1.3368312694        0.6771369309
 C         -2.3442000783       -1.9865366383        0.1750045712
 C         -1.8678324661       -1.4026500210        1.3322483098
 C         -0.6004779409       -1.7399589589        1.7781637782
 C          0.1598727239       -2.6572480516        1.0702966581
 C         -0.3306746165       -3.2310740445       -0.0918915433
 C         -1.5908167751       -2.8861157673       -0.5513899671
 H         -2.0103742579       -3.3080543286       -1.4506681480
 H          0.2660760070       -3.9413454774       -0.6410250839
 H          1.1399225913       -2.9245136693        1.4315743054
 H         -0.2077311362       -1.2810178098        2.6724376522
 H         -2.4899910395       -0.7056382576        1.8700315796
 H         -3.2317541873       -0.1933547084       -2.0476368040
 H         -4.8711104865        1.1900464332        0.8407981892
 H         -3.7748790999        2.8458743695        2.3325755095
 H         -1.4157042877        3.4566391178        1.9735398136
 C          0.2726721730        2.5670471762        0.0405343703
 H          0.5528239904        3.3020230069        0.8066948956
 C          0.4960684247        3.1900103918       -1.3242579321
 C          0.0938985610        4.6154953899       -1.5468755636
 C          1.5453272433        4.2466454866       -1.4841684723
 H          2.1242943140        4.2645727030       -2.3953815018
 H          2.1066080863        4.5317871853       -0.6059445627
 H         -0.3267142150        4.8890371510       -2.5023268903
 H         -0.3284478984        5.1527915689       -0.7111806271
 H          0.3643547018        2.4958381120       -2.1434527800
 O          0.7734363491        0.2476807178       -1.7742562603
