  62
        -98.94518993
 C         -1.8205608428       -1.2692094419       -0.2507051138
 C         -2.8872827568       -0.5827549731        0.3687712670
 C         -3.2135205341        0.7472291405       -0.1727054339
 C         -2.4943966999        1.2263710141       -1.2030561446
 C         -2.6009038287        2.5835600769       -1.8412933268
 C         -1.6061344645        3.5576624761       -1.1852682758
 C         -2.1531014087        4.3069838425        0.0280345582
 H         -1.3243682426        4.8761081649        0.4559194131
 H         -2.9146324126        5.0202239281       -0.2963812770
 C         -2.7431335046        3.4110936862        1.1199568029
 H         -2.0914112806        2.5457153587        1.2609524072
 H         -2.7362088743        3.9728564779        2.0565785727
 C         -4.1805601188        2.9589519770        0.8208465676
 H         -4.5756539764        3.5564201155       -0.0008357267
 H         -4.8110545678        3.1684860300        1.6876262250
 C         -4.3505166504        1.4662751677        0.5011891612
 H         -4.5129959287        0.9130207913        1.4317747037
 H         -5.2541149371        1.3329094920       -0.1035109832
 H         -0.7222445414        2.9884681423       -0.8831798264
 H         -1.2890117632        4.2938277176       -1.9271966429
 H         -2.3270909649        2.4582013790       -2.8909489037
 H         -3.6178505721        2.9610659235       -1.7856215256
 O         -1.4910674827        0.5201968124       -1.7891208586
 C         -1.1047294689       -0.7158494319       -1.3108344573
 O         -0.1352669309       -1.2223476044       -1.9100054060
 O         -3.5305368836       -1.0551429859        1.3475715453
 C         -1.3618661596       -2.6027796097        0.3106125212
 C          0.0926013248       -2.5044319558        0.7024853822
 C          1.0222863998       -3.5104412292        0.4711082272
 C          2.3513587421       -3.3316444199        0.8164831250
 C          2.7864941463       -2.1417450995        1.3709916843
 C          1.8607991303       -1.1349867869        1.6181549090
 C          0.5247910066       -1.3366396032        1.3182344550
 H         -0.1802052252       -0.5443309239        1.5236311593
 N          2.2427812072        0.1175402611        2.1464267099
 S          2.0540376127        1.4312817462        1.1172841381
 O          2.5462518074        2.5694842621        1.8642625629
 O          0.6924761530        1.5097207997        0.6595639705
 C          3.1728275205        1.0822838416       -0.2274648756
 C          4.4415967051        1.6290738072       -0.1821583634
 C          5.3498313939        1.3042335791       -1.1759640134
 C          4.9787760976        0.4314717966       -2.1882290466
 C          3.7037462003       -0.1113315446       -2.2160959436
 C          2.7863456493        0.2123814824       -1.2271205362
 H          1.7871143565       -0.1960248855       -1.2375794350
 H          3.4064211064       -0.7897712285       -2.9996359734
 H          5.6856626322        0.1734290583       -2.9609989593
 H          6.3409585381        1.7280565167       -1.1568761988
 H          4.6819182917        2.3042718374        0.6233935096
 H          3.1823527988        0.1305289501        2.5205983290
 H          3.8287450989       -1.9890603858        1.6078276671
 H          3.0619900050       -4.1218748559        0.6285601209
 H          0.7076038914       -4.4325590164        0.0103000984
 H         -1.9609941966       -2.7642172417        1.2194561790
 C         -1.6455675535       -3.7231824325       -0.6683588733
 C         -1.9471233534       -5.1057745304       -0.1738977046
 C         -3.0393006369       -4.2652938359       -0.7616648830
 H         -3.4276013191       -4.5254624683       -1.7348437534
 H         -3.7781798970       -3.8432095885       -0.0960863615
 H         -1.5880041852       -5.9477127985       -0.7463495235
 H         -1.9521124849       -5.2657287614        0.8936813714
 H         -1.0865313352       -3.6172024183       -1.5914072791
