  62
        -98.94547537
 C         -2.3724644673       -1.0910259220        0.1446342274
 C         -2.0251410132       -0.1792452470       -0.8817828929
 C         -2.7239801586        1.1122471035       -0.8445978458
 C         -3.6276075827        1.3599694085        0.1207839605
 C         -4.4225673045        2.6273401748        0.2841354507
 C         -3.6758190588        3.7380870620        1.0361963135
 C         -2.5443089589        4.4087653685        0.2555961777
 H         -2.9196352425        4.7402731652       -0.7129376978
 H         -2.2539890184        5.3002850239        0.8151280221
 C         -1.3034275146        3.5271324683        0.0544401250
 H         -1.3350176159        2.6919444796        0.7590018809
 H         -0.4045981012        4.1047601365        0.2848009249
 C         -1.1419451674        2.9753837932       -1.3622654869
 H         -0.2616789186        2.3288220518       -1.3791660868
 H         -0.9738575649        3.8002141571       -2.0579863481
 C         -2.3348639036        2.1474560555       -1.8562921630
 H         -3.1790305487        2.7971569458       -2.0847324011
 H         -2.0353908718        1.6245287750       -2.7676068270
 H         -3.2809302085        3.3250495960        1.9677056890
 H         -4.4093903897        4.5036995172        1.2989804008
 H         -5.3141121056        2.3641527115        0.8573982350
 H         -4.7345022117        2.9943543761       -0.6938843233
 O         -3.9387466237        0.4517255540        1.0843722970
 C         -3.3096346042       -0.7835915977        1.1299280212
 O         -3.6633040334       -1.5053446070        2.0853566823
 O         -1.1768700659       -0.4243195135       -1.7767000440
 C         -1.7098592868       -2.4542004346        0.1969283991
 C         -0.2057425393       -2.3300929997        0.2602696303
 C          0.6472219403       -3.2114433152       -0.3930325394
 C          2.0197469737       -3.0819508344       -0.2706402126
 C          2.5734449679       -2.0742319269        0.4970854676
 C          1.7304551217       -1.1795351057        1.1443240072
 C          0.3548660384       -1.3181728674        1.0287022490
 H         -0.2973332248       -0.6238927329        1.5447201596
 N          2.2712797473       -0.1481608484        1.9249039238
 S          3.7041831299        0.5863237069        1.4851641358
 O          4.8130730373       -0.2483166213        1.8776603613
 O          3.6513156053        1.8934130422        2.1018005535
 C          3.6745977479        0.7417335546       -0.2916158343
 C          2.6327484773        1.4359957967       -0.8727324724
 C          2.6011149660        1.5666152617       -2.2513288429
 C          3.6073161386        1.0033989383       -3.0211012125
 C          4.6504637920        0.3145912376       -2.4224221527
 C          4.6866559438        0.1807145565       -1.0438707769
 H          5.4783554510       -0.3465082479       -0.5364989006
 H          5.4328562420       -0.1194803757       -3.0237789651
 H          3.5759156318        1.1047876894       -4.0943660895
 H          1.7894701910        2.0997182733       -2.7202475033
 H          1.8659339169        1.8647945416       -0.2464697848
 H          1.5970239400        0.5152668752        2.2735576564
 H          3.6398051828       -1.9759159039        0.6168379814
 H          2.6692106076       -3.7774886835       -0.7795340270
 H          0.2362262883       -4.0033839789       -0.9969709836
 H         -2.0479804241       -2.9217587064        1.1341224324
 C         -2.1889807468       -3.3001341971       -0.9665657141
 C         -2.3453366480       -4.7827740700       -0.8163949706
 C         -3.5575864829       -3.9060943583       -0.8994807743
 H         -4.1561957608       -3.9322862428       -1.7976283662
 H         -4.1301471215       -3.7343587157        0.0008527729
 H         -2.1143743867       -5.4143903699       -1.6610292295
 H         -2.1026338092       -5.2183919427        0.1411995780
 H         -1.8598494000       -2.9121627771       -1.9236664796
