  62
        -98.93884297
 C         -1.9133097408       -0.2827611904        0.0381743151
 C         -2.9509712483       -1.1309408006        0.4893123688
 C         -4.2631181109       -0.5008565182        0.7138846835
 C         -4.3948352605        0.8209451350        0.5069233290
 C         -5.6483157065        1.6433218572        0.6232555504
 C         -6.3455833476        1.7633993986       -0.7425335320
 C         -7.3166283687        0.6302138452       -1.0720953032
 H         -8.2041722277        0.7245364687       -0.4428700986
 H         -7.6342251557        0.7662292779       -2.1085060759
 C         -6.7522236818       -0.7840073581       -0.9126482196
 H         -7.3691351178       -1.4590736379       -1.5090369115
 H         -5.7410504564       -0.8247925911       -1.3217290849
 C         -6.7480900258       -1.2719287051        0.5437716709
 H         -7.3593261088       -0.5995001149        1.1454586094
 H         -7.2239634157       -2.2532909717        0.5967746779
 C         -5.3590918853       -1.4184094969        1.1835119307
 H         -4.9757470833       -2.4258927534        0.9940937807
 H         -5.4548934904       -1.3203235076        2.2699759407
 H         -6.9005901613        2.7033028770       -0.7715256064
 H         -5.5694806180        1.8192929343       -1.5103706687
 H         -6.3162131581        1.2259873229        1.3708711662
 H         -5.3380473696        2.6399283905        0.9441055908
 O         -3.3625599817        1.6063644320        0.0928724755
 C         -2.1044255375        1.0844550076       -0.1584659903
 O         -1.2682019494        1.9241842547       -0.5412978988
 O         -2.7898652661       -2.3647912473        0.6924525467
 C         -0.5439859481       -0.8835150180       -0.2305131646
 C          0.4713568926       -0.2349654253        0.6762629742
 C          0.3188747500       -0.3866657717        2.0532735262
 C          1.1952379110        0.2177554472        2.9320500034
 C          2.2494665621        0.9790866458        2.4566869645
 C          2.4119260670        1.1367353187        1.0860624601
 C          1.5286895156        0.5252363261        0.2044230615
 H          1.6663213302        0.6842797510       -0.8511492046
 N          3.4584783819        1.9257067783        0.5836528936
 S          4.3837380211        1.4269506575       -0.7137342449
 O          5.5140833482        2.3291249844       -0.7164835674
 O          3.5938757332        1.3881729785       -1.9170578428
 C          4.9252657484       -0.2135044158       -0.2703194846
 C          6.0606398312       -0.3423831367        0.5062874457
 C          6.4596934560       -1.6068222520        0.9072696930
 C          5.7142241011       -2.7153763100        0.5349871275
 C          4.5764585394       -2.5688655600       -0.2432349193
 C          4.1743277726       -1.3068281526       -0.6519556349
 H          3.2986749048       -1.1563550859       -1.2610936747
 H          3.9986394236       -3.4315731024       -0.5342812747
 H          6.0226902906       -3.6997836425        0.8498569238
 H          7.3469604939       -1.7242813922        1.5083153697
 H          6.6158195785        0.5448630475        0.7643850774
 H          4.0392363706        2.3483635829        1.2928755279
 H          2.9317278025        1.4596648078        3.1413535943
 H          1.0606081080        0.0954258776        3.9961574121
 H         -0.5082254006       -0.9778059592        2.4221707112
 H         -0.6329939624       -1.9420647892        0.0538615649
 C         -0.2037252221       -0.8039687732       -1.7028603041
 C          0.7411141245       -1.7980295330       -2.3066959105
 C         -0.7218458477       -1.8646863260       -2.6255119373
 H         -1.0512293611       -1.5735278040       -3.6117072985
 H         -1.3049930038       -2.6616555641       -2.1875823465
 H          1.4203962642       -1.4608958894       -3.0759423764
 H          1.1457303930       -2.5583190643       -1.6554504103
 H         -0.1844499263        0.2125788795       -2.0801003023
