  62
        -98.94515650
 C         -2.2660718482        0.7388096500        0.0203090785
 C         -3.2626294444        0.6713075270       -0.9861958295
 C         -4.1385130141       -0.5063099724       -0.9525459159
 C         -3.9267567466       -1.4550682078       -0.0222902829
 C         -4.7704003000       -2.6831993545        0.1569031785
 C         -5.9116722271       -2.4330026280        1.1528756757
 C         -6.7082424717       -1.1587427521        0.8721369505
 H         -7.5036614562       -1.1020593612        1.6183615169
 H         -6.0604963351       -0.2927648220        1.0265184980
 C         -7.3200230707       -1.0893951482       -0.5340467557
 H         -8.3519177404       -0.7421812348       -0.4499423603
 H         -7.3487775625       -2.0864586184       -0.9748732285
 C         -6.6049311708       -0.1330817044       -1.4902660739
 H         -6.4912582026        0.8438258364       -1.0138020121
 H         -7.2382377588        0.0037075822       -2.3707459995
 C         -5.2271871689       -0.5910903658       -1.9852689977
 H         -5.2981540891       -1.6036204994       -2.3876036248
 H         -4.9245505885        0.0798826164       -2.7944018671
 H         -5.4847734752       -2.3565012148        2.1556282510
 H         -6.5811436621       -3.2948765654        1.1337567879
 H         -4.1345940952       -3.4838189973        0.5388865791
 H         -5.1750085604       -2.9832892737       -0.8077785800
 O         -2.9364834646       -1.3763685148        0.9021270308
 C         -2.0882923149       -0.2793294826        0.9570545968
 O         -1.2460552453       -0.3389823153        1.8742850998
 O         -3.4128076883        1.5574016208       -1.8687920781
 C         -1.3420229764        1.9463428861        0.0265044841
 C          0.0354338159        1.4861521359       -0.3806788323
 C          0.3236054449        1.3187257262       -1.7326222243
 C          1.5525571013        0.8332738096       -2.1370091993
 C          2.5168916009        0.4945609445       -1.2031105975
 C          2.2320361962        0.6401264444        0.1472355481
 C          1.0049332304        1.1506940296        0.5508956817
 H          0.7933684706        1.2464514282        1.6039607527
 N          3.1985278867        0.2895329749        1.1053968478
 S          4.0092712621       -1.1688958546        0.9259722180
 O          3.2158653039       -2.1472868399        0.2183468732
 O          4.4386621568       -1.5296774456        2.2598233124
 C          5.4423709604       -0.7294605835       -0.0380006001
 C          5.7489917601       -1.4395334460       -1.1821432894
 C          6.8745033893       -1.0851860525       -1.9100277236
 C          7.6700056488       -0.0334447220       -1.4823546937
 C          7.3501354219        0.6679307497       -0.3293144519
 C          6.2273039982        0.3179899514        0.4032689849
 H          5.9451872717        0.8354646947        1.3048254164
 H          7.9710349380        1.4853921208        0.0000718570
 H          8.5443594763        0.2411072236       -2.0510779147
 H          7.1247930714       -1.6301567899       -2.8060793955
 H          5.0977709898       -2.2462465007       -1.4796486146
 H          2.8750882521        0.3996964814        2.0560300738
 H          3.4728415970        0.1031441398       -1.5103396485
 H          1.7631371442        0.7129234575       -3.1888474418
 H         -0.4372710374        1.5613881181       -2.4612845387
 H         -1.7266934582        2.6079768409       -0.7611893753
 C         -1.3790796001        2.6881169702        1.3459116884
 C         -0.8182295652        4.0758242719        1.4220448494
 C         -2.2989598727        3.8605847231        1.5001135832
 H         -2.7933411462        4.0049503721        2.4491566532
 H         -2.9018876130        4.1377386429        0.6478717617
 H         -0.2936293583        4.3720679751        2.3174460539
 H         -0.4147621968        4.4983057960        0.5144574207
 H         -1.2569430131        2.0424105198        2.2070902243
