  62
        -98.93625245
 C         -2.8476610800        0.0308773218       -0.3858920976
 C         -2.8695142953        0.8334145393        0.7855917831
 C         -2.4467764768        2.2284928271        0.6295905111
 C         -2.1227873373        2.6911835244       -0.5910077005
 C         -1.6642235398        4.0856834397       -0.9204366031
 C         -0.1544930009        4.2927578220       -0.7351130646
 C          0.3178958195        4.3441968317        0.7186403203
 H          1.3495164519        4.7015422845        0.7113862573
 H         -0.2760873001        5.0767309932        1.2660122935
 C          0.2683619879        2.9953774135        1.4509612336
 H          0.1900189641        2.1792732723        0.7275398156
 H          1.2001822434        2.8320127764        1.9982357176
 C         -0.8716142632        2.8606171679        2.4610850939
 H         -0.7314183206        3.5809657867        3.2703298950
 H         -0.8188807450        1.8562807835        2.8908448951
 C         -2.2742694374        3.0549405686        1.8672035023
 H         -3.0083309785        2.7164591678        2.6023032778
 H         -2.4506422418        4.1089492197        1.6536305854
 H          0.1075769607        5.2388470288       -1.2139590708
 H          0.3728730553        3.4939629654       -1.2619756167
 H         -2.2109688375        4.8066664091       -0.3129875781
 H         -1.9094867852        4.2555952383       -1.9709493332
 O         -2.1804095535        1.9117377795       -1.7009965279
 C         -2.4719376794        0.5511359383       -1.6243498565
 O         -2.3598125608       -0.0363022798       -2.7159120832
 O         -3.2194621270        0.3931588815        1.9130497674
 C         -3.1203881532       -1.4490282038       -0.1778461627
 C         -1.8593994571       -2.0994727534        0.3393009222
 C         -1.8783899636       -2.9700345090        1.4211160650
 C         -0.6995153780       -3.4981274481        1.9206420896
 C          0.5189059895       -3.1613746872        1.3597654514
 C          0.5475300642       -2.2923493559        0.2765047241
 C         -0.6353332791       -1.7795861581       -0.2318447331
 H         -0.6073299922       -1.1033787667       -1.0763237129
 N          1.7899391532       -1.9157943595       -0.2813134898
 S          2.8202177823       -1.1697911910        0.8432026859
 O          3.5315825584       -2.2078538552        1.5466137832
 O          2.0685160060       -0.2497485316        1.6655413594
 C          3.9350179085       -0.2821092429       -0.2253762224
 C          5.0124015837       -0.9490010927       -0.7765032932
 C          5.8584179876       -0.2598048935       -1.6307740798
 C          5.6130862500        1.0747299996       -1.9184152814
 C          4.5275122481        1.7303242852       -1.3568122431
 C          3.6765254584        1.0468480252       -0.5026430287
 H          2.8249567355        1.5179633801       -0.0365050495
 H          4.3402381538        2.7683408018       -1.5800650530
 H          6.2733458931        1.6095589275       -2.5826781680
 H          6.7048934252       -0.7639927787       -2.0681815581
 H          5.1669834959       -1.9830122641       -0.5165009658
 H          1.6569633905       -1.3002872990       -1.0741574941
 H          1.4483241939       -3.5349557347        1.7587724521
 H         -0.7283139611       -4.1670933967        2.7674642169
 H         -2.8207788805       -3.2097912715        1.8913838763
 H         -3.8664512284       -1.4972624484        0.6315012512
 C         -3.7061974615       -2.1613196567       -1.3856456893
 C         -2.9195273549       -3.1096697285       -2.2348236316
 C         -3.9863385372       -3.6337143164       -1.3239317711
 H         -4.9033401127       -4.0025780068       -1.7573157895
 H         -3.6682409836       -4.1649665943       -0.4396806145
 H         -3.0989379075       -3.0938485098       -3.2986683544
 H         -1.8893174491       -3.2936233431       -1.9716536751
 H         -4.4355515924       -1.5475962775       -1.9029845242
