  62
        -98.93082890
 C         -1.4952638106       -0.6368677495       -0.8157755612
 C         -2.8454371606       -1.0344381394       -0.9894710315
 C         -3.8902257207       -0.0807961498       -0.5808058510
 C         -3.5269863708        1.1011990999       -0.0498023202
 C         -4.3503726709        2.2831872396        0.4178772905
 C         -5.8580815009        2.1547501393        0.6164062903
 C         -6.2737394909        1.2529773986        1.7783856697
 H         -6.0042366310        1.7478104180        2.7149027401
 H         -7.3607207909        1.1482932485        1.7589756796
 C         -5.6406366208       -0.1361331514        1.7944220789
 H         -4.5579915708       -0.0453157814        1.9036472990
 H         -6.0099882109       -0.6616904820        2.6793398385
 C         -5.9443972607       -1.0075649006        0.5774461583
 H         -5.5660480306       -2.0114409407        0.7889478377
 H         -7.0247808607       -1.0809903806        0.4378755682
 C         -5.3095421306       -0.5434886197       -0.7446818714
 H         -5.2761429805       -1.4019540493       -1.4218545319
 H         -5.9115322307        0.2253342205       -1.2233506709
 H         -6.3333145508        1.8331467699       -0.3056536499
 H         -6.2312874010        3.1600578592        0.8302072009
 H         -3.8925154610        2.6125351090        1.3559363007
 H         -4.1640438309        3.0791538900       -0.3114157190
 O         -2.2163311308        1.4376468399        0.1093373301
 C         -1.1706671307        0.6010883402       -0.2603075604
 O         -0.0512303808        1.0901643701       -0.0339144900
 H          1.8481745093       -0.3496837796       -0.2467412608
 C          1.5833512893       -1.2483182500        0.2784060886
 C          0.4769135294       -1.9918040598       -0.1033353719
 C          0.1471008894       -3.1147676003        0.6553601173
 C          0.8995868594       -3.4823726909        1.7539825272
 C          2.0141393293       -2.7469578211        2.1160472677
 C          2.3512453293       -1.6229468606        1.3732487985
 N          3.4555848292       -0.8361439508        1.7255700290
 S          4.3825196892       -0.1099198099        0.5409441996
 O          4.4652137494       -0.9367454792       -0.6412500710
 O          5.6434022092        0.1710605597        1.1977163298
 C          3.5721806492        1.4309210602        0.1793055905
 C          3.0490311891        2.1676955895        1.2219204709
 C          2.4491632090        3.3841945397        0.9444574217
 C          2.3888016691        3.8437497105       -0.3616135980
 C          2.9243064792        3.0943787912       -1.3964346085
 C          3.5233321692        1.8744951311       -1.1264335292
 H          3.9355288793        1.2515304216       -1.9047731496
 H          2.8691055992        3.4491498018       -2.4134446483
 H          1.9141294890        4.7886707606       -0.5754190075
 H          2.0224462589        3.9664685291        1.7453674720
 H          3.1051695490        1.7764293089        2.2242392407
 H          4.0130757992       -1.1845032212        2.4910644088
 H          2.6121034593       -3.0336887716        2.9678895276
 H          0.6232455794       -4.3537966913        2.3282012666
 H         -0.7207385905       -3.6967579302        0.3776547269
 C         -0.4282407605       -1.6343628491       -1.2537177017
 H         -1.0084386205       -2.5429452090       -1.4776964124
 C          0.2044781095       -1.2351763182       -2.5837779414
 C          0.9987550895        0.0126153020       -2.8255902506
 C          1.6659277696       -1.3272016379       -2.9059951514
 H          1.9414162996       -1.6981982373       -3.8828020216
 H          2.3619020495       -1.6013646884       -2.1278650815
 H          0.8163213395        0.5511405626       -3.7452161203
 H          1.2052201694        0.6574106615       -1.9870858702
 H         -0.4655393104       -1.5028192677       -3.3976672317
 O         -3.1716811205       -2.1495213391       -1.4807503123
