  62
        -98.94127684
 C          1.3459785439        1.4900786427       -0.1397679877
 C          2.4835955401        1.1052096916        0.6011567578
 C          3.1640589687       -0.1313375848        0.1763804976
 C          2.6527883246       -0.8386997031       -0.8475723432
 C          3.1638069987       -2.1199983562       -1.4568146068
 C          3.5949499987       -3.2212511243       -0.4761512939
 C          5.1066564886       -3.4545803622       -0.4498037635
 H          5.2960590740       -4.4704163399       -0.0960094869
 H          5.4846141112       -3.3891481952       -1.4721932295
 C          5.8971323944       -2.4997554346        0.4430367389
 H          6.9591023784       -2.6812527049        0.2616826796
 H          5.7003216287       -2.7394065730        1.4903074295
 C          5.6099470704       -1.0125331879        0.2274338659
 H          5.5091582381       -0.7922255543       -0.8345465531
 H          6.4731773602       -0.4503991021        0.5899639461
 C          4.3739213110       -0.5086919397        0.9874625463
 H          4.0726057332       -1.2428090904        1.7412547360
 H          4.6286914625        0.4004813967        1.5415741807
 H          3.2234861013       -2.9920466522        0.5220043790
 H          3.1150587520       -4.1506603866       -0.7877832085
 H          2.3430130882       -2.4818361039       -2.0801862231
 H          3.9894885934       -1.8803307975       -2.1318179303
 O          1.5440309966       -0.4341140070       -1.5287434508
 C          0.8571345681        0.7148267600       -1.1888638197
 O         -0.1510237855        0.9400299271       -1.8869765593
 H         -0.3193466908        0.5865592072        1.5516786719
 C         -1.1299011937        1.2280908254        1.2373926269
 C         -0.8560903996        2.4027241138        0.5482998744
 C         -1.9221294070        3.2096904205        0.1696951182
 C         -3.2242801756        2.8324997914        0.4503315543
 C         -3.4928147393        1.6367185618        1.0907878073
 C         -2.4325518179        0.8282018815        1.4826803478
 N         -2.6452224105       -0.4160124091        2.1156132929
 S         -2.1681202418       -1.7746390282        1.2538714456
 O         -2.5633954896       -2.8982578709        2.0769597878
 O         -0.7689602267       -1.6849094114        0.9268151878
 C         -3.1845356059       -1.7327848652       -0.2118752983
 C         -2.8342809524       -0.9066603299       -1.2608562652
 C         -3.6842831565       -0.8257400537       -2.3541700481
 C         -4.8582393562       -1.5620759876       -2.3801097880
 C         -5.1940098555       -2.3877692152       -1.3173346914
 C         -4.3536218193       -2.4704471448       -0.2195708143
 H         -4.5700669950       -3.0996980252        0.6287622033
 H         -6.1058797345       -2.9624703007       -1.3397965302
 H         -5.5132067216       -1.4921078878       -3.2342520264
 H         -3.4142798772       -0.1816185621       -3.1756332155
 H         -1.9128900001       -0.3452513240       -1.2282189454
 H         -3.5960994626       -0.5496360552        2.4336560026
 H         -4.5089469792        1.3278280184        1.2849518065
 H         -4.0413445743        3.4694626140        0.1481556035
 H         -1.7330798845        4.1334021256       -0.3523735029
 C          0.5846489503        2.7419037101        0.2540013995
 H          1.0564924118        3.0943910693        1.1837187091
 C          0.7421610347        3.8099782833       -0.8094541070
 C          0.7450725697        5.2615683260       -0.4354368781
 C          2.0173817522        4.5950197987       -0.8615165123
 H          2.4332799357        4.8398867717       -1.8272672107
 H          2.7612632908        4.3778419109       -0.1088696676
 H          0.6305181803        5.5093966452        0.6089732097
 H          0.2892917938        5.9692214135       -1.1114629148
 H          0.2926385381        3.5225007223       -1.7535299789
 O          2.9184671854        1.7697569226        1.5830400234
