  62
        -98.93702237
 C         -1.8030873968       -0.1356813505        0.4498724519
 C         -2.7360986432       -0.7426674930       -0.4220820490
 C         -4.0350401849       -0.0561823209       -0.5932917450
 C         -4.2542021828        1.1009508352        0.0565041649
 C         -5.4972792796        1.9503288812        0.0602462711
 C         -6.6152999613        1.3597114456        0.9349374985
 C         -6.8251850678       -0.1444345690        0.7810758667
 H         -5.8914439894       -0.6611735055        1.0099415316
 H         -7.5592822904       -0.4551484373        1.5292353806
 C         -7.3330806682       -0.5939402919       -0.5867373929
 H         -7.5170479203       -1.6696649944       -0.5265901330
 H         -8.2881896806       -0.1052883378       -0.7921341810
 C         -6.3929823841       -0.3384041098       -1.7665239403
 H         -6.7716421564       -0.9168442062       -2.6143797140
 H         -6.4189500739        0.7047361923       -2.0698097433
 C         -4.9525541158       -0.7882202443       -1.5434827001
 H         -4.9514507099       -1.8342580692       -1.2169837732
 H         -4.4344864872       -0.7881477874       -2.5100418692
 H         -6.3636783705        1.5550385902        1.9803251858
 H         -7.5445629075        1.8851509369        0.7083145213
 H         -5.2112595120        2.9214779677        0.4705009122
 H         -5.8433448927        2.1103816175       -0.9565757463
 O         -3.3200750610        1.6565456936        0.8813737617
 C         -2.0938695122        1.0656749320        1.1014994358
 O         -1.3578238670        1.6915222526        1.8924854303
 O         -2.5293185427       -1.8196669142       -1.0404240389
 C         -0.4277706420       -0.7232938531        0.7321364408
 C          0.5083088859       -0.4238363261       -0.4146561681
 C          0.4213772113       -1.0954853795       -1.6302367775
 C          1.2739129461       -0.7736376383       -2.6698396856
 C          2.2388967789        0.2062099711       -2.5153171733
 C          2.3325494482        0.8853891477       -1.3070212054
 C          1.4678720895        0.5687508099       -0.2680510649
 H          1.5385491132        1.1205921723        0.6578503159
 N          3.3016056472        1.8891372522       -1.1201869511
 S          4.3005230659        1.7883213451        0.2194531944
 O          3.5674483682        2.1050294578        1.4176752733
 O          5.4206499510        2.6483488929       -0.0933195063
 C          4.8223778771        0.0833642856        0.2374582479
 C          5.8392248275       -0.3003870773       -0.6151616057
 C          6.1992168649       -1.6368330396       -0.6704998782
 C          5.5314651593       -2.5637884459        0.1155127045
 C          4.5133976187       -2.1628349413        0.9665123963
 C          4.1525633111       -0.8261711188        1.0299276686
 H          3.3701926847       -0.4713251322        1.6811849205
 H          3.9951702931       -2.8844684329        1.5775939932
 H          5.8068109659       -3.6054317980        0.0675887888
 H          6.9939922983       -1.9517693285       -1.3272360814
 H          6.3374134432        0.4536995052       -1.2027524859
 H          3.8502339215        2.0841865377       -1.9458953386
 H          2.9072089897        0.4536460089       -3.3262322073
 H          1.1907198103       -1.2965455943       -3.6104094064
 H         -0.3413617034       -1.8459933007       -1.7627655690
 H         -0.0560182950       -0.1810708357        1.6125386871
 C         -0.4741033186       -2.2012654672        1.0646361227
 C          0.6478945029       -2.8034882225        1.8528414849
 C         -0.6986459816       -2.6205029600        2.4849342300
 H         -1.3059184391       -3.4927530913        2.6748898608
 H         -0.8142309478       -1.8403942871        3.2241553971
 H          0.9691172021       -3.8042160073        1.6090847215
 H          1.4433075833       -2.1452963021        2.1682875349
 H         -0.9338810555       -2.8052875780        0.2946133367
