  62
        -98.94502681
 C         -2.5501447772       -0.1265803953        0.4310427144
 C         -2.3786095408        0.5460879134       -0.8025382838
 C         -2.1667128396        1.9973071319       -0.7166430484
 C         -2.1481890311        2.5914664480        0.4900064656
 C         -1.9426123119        4.0605725368        0.7207518629
 C         -0.4658679852        4.4072063887        0.9489296466
 C          0.4848294873        3.8298899876       -0.1000909639
 H          1.4835083058        4.2078784065        0.1319400738
 H          0.5294494110        2.7435614695        0.0082272468
 C          0.1320823559        4.1849766549       -1.5510192741
 H          1.0522855602        4.4532255811       -2.0742077812
 H         -0.5204618751        5.0590394452       -1.5724252093
 C         -0.5131528537        3.0463444762       -2.3437936806
 H         -0.4692332058        3.3020302442       -3.4060689635
 H          0.0663999662        2.1306066685       -2.1983701592
 C         -1.9787994955        2.7446128752       -2.0062888098
 H         -2.5570252399        3.6712285728       -2.0060208248
 H         -2.3749933357        2.0907072396       -2.7887645470
 H         -0.1655185675        4.0213426084        1.9261885306
 H         -0.3710865240        5.4951490612        0.9685346236
 H         -2.3253718469        4.6097123582       -0.1376715369
 H         -2.5122787391        4.3474668578        1.6068987642
 O         -2.3089333954        1.9101602849        1.6548716723
 C         -2.4889820816        0.5366684648        1.6545228749
 O         -2.5938209015        0.0302466604        2.7926371476
 H         -0.1817478309       -0.9087069058        0.5209965737
 C         -0.3168755304       -1.7910921876       -0.0876146939
 C         -1.5919961683       -2.3165093712       -0.2498160721
 C         -1.7428264121       -3.4635635241       -1.0184014921
 C         -0.6415941428       -4.0537226230       -1.6152540852
 C          0.6225683995       -3.5151320272       -1.4669301114
 C          0.7831741769       -2.3628936934       -0.7030253423
 N          2.0448341028       -1.7573458420       -0.5852083372
 S          2.3387690409       -0.5933320686        0.5904479885
 O          2.0902388959       -1.1307608366        1.9118081351
 O          1.6331791221        0.6128857026        0.2414553333
 C          4.0901888002       -0.3618242749        0.3527715956
 C          4.9775446958       -1.1061151185        1.1072604899
 C          6.3378053045       -0.9445818897        0.8963603074
 C          6.7854894812       -0.0473627169       -0.0617083340
 C          5.8832832139        0.6945978155       -0.8094817147
 C          4.5217557891        0.5376901000       -0.6032502854
 H          3.7828678211        1.0971865480       -1.1532335621
 H          6.2347279141        1.3940890518       -1.5506464280
 H          7.8444066474        0.0770244239       -0.2241119458
 H          7.0413307528       -1.5170108439        1.4790848081
 H          4.5833730367       -1.7818963608        1.8492258997
 H          2.8196477141       -2.3920083208       -0.7135709607
 H          1.4769702037       -3.9701474490       -1.9435483286
 H         -0.7715895968       -4.9459070596       -2.2089086773
 H         -2.7221070500       -3.8935313198       -1.1519693404
 C         -2.7440505643       -1.6310637291        0.4464128800
 H         -2.7262326197       -1.9299700983        1.5060977875
 C         -4.0943419537       -1.9916347565       -0.1404425883
 C         -4.8560592109       -3.1751347170        0.3738317442
 C         -5.3205303151       -1.7875512515        0.6959400870
 H         -6.2149017028       -1.4156666042        0.2192547878
 H         -5.1745822002       -1.4168593876        1.7005664238
 H         -5.4373077939       -3.7575077658       -0.3251499554
 H         -4.4070681301       -3.7531147936        1.1676184964
 H         -4.1618219709       -1.7543725894       -1.1959881608
 O         -2.4137429835       -0.0340247673       -1.9197324035
