  62
        -98.93491925
 C         -2.8074497738       -0.3029573565        0.0915198872
 C         -2.0454253489       -1.0049441174        1.0563893738
 C         -1.4831991557       -2.2937153131        0.6261621346
 C         -1.7079948417       -2.7336977060       -0.6237930284
 C         -1.0539868226       -3.9284133212       -1.2559070054
 C          0.3796299583       -3.5522360182       -1.6876289347
 C          1.4843761278       -4.3000401765       -0.9401561562
 H          2.4259653655       -3.8021316368       -1.1822090853
 H          1.5420204796       -5.3229142816       -1.3193024372
 C          1.3320671485       -4.3698875319        0.5826893939
 H          2.3033467660       -4.6632692487        0.9867470951
 H          0.6326040658       -5.1658383597        0.8438136440
 C          0.8805724711       -3.0750184008        1.2708562417
 H          1.1260807649       -2.2061521528        0.6576732144
 H          1.4291284810       -2.9775836665        2.2105815578
 C         -0.6215550331       -3.0293957378        1.6140091074
 H         -0.7504233846       -2.4941812328        2.5591435757
 H         -1.0025017549       -4.0446107264        1.7521161025
 H          0.5140773454       -2.4760446123       -1.5478195149
 H          0.4994626997       -3.7436271143       -2.7555683109
 H         -1.0389033814       -4.7603091303       -0.5553020865
 H         -1.6507164809       -4.2097953204       -2.1238697984
 O         -2.4996078473       -2.0672780870       -1.5033125239
 C         -3.0331851992       -0.8326154473       -1.1829918607
 O         -3.6962642681       -0.3096039164       -2.1020208961
 H         -0.7721577349        1.1437828277        1.2048576601
 C         -0.9105952316        1.8654102075        0.4135007942
 C         -2.1702607878        2.0390678838       -0.1420278980
 C         -2.3200588786        2.9781996987       -1.1544973636
 C         -1.2308025140        3.6991270961       -1.6155079476
 C          0.0336852421        3.4773236181       -1.0984898305
 C          0.1869324731        2.5501663675       -0.0780099394
 N          1.4930003192        2.2327605547        0.3938448588
 S          2.1879306866        1.0962161740       -0.6611087497
 O          2.3408383088        1.7298496945       -1.9465425581
 O          1.4319686879       -0.1383173946       -0.6467416136
 C          3.7884710634        0.8521371317        0.0851236404
 C          4.0659392583       -0.3233170387        0.7548028433
 C          5.3097301808       -0.4789402690        1.3472127190
 C          6.2461482888        0.5399874904        1.2638343288
 C          5.9509343334        1.7161469142        0.5899050821
 C          4.7109014683        1.8770046009       -0.0065878378
 H          4.4387960069        2.7679627557       -0.5473185287
 H          6.6822111229        2.5057005018        0.5270643681
 H          7.2126901103        0.4158987958        1.7260525694
 H          5.5407513651       -1.3928996196        1.8703203110
 H          3.3093329727       -1.0908355460        0.7937231964
 H          1.4332330701        1.7846086855        1.3017253443
 H          0.8995719836        3.9848758860       -1.4904353732
 H         -1.3636962936        4.4198135394       -2.4081552886
 H         -3.2912818228        3.1166540743       -1.6067462258
 C         -3.3003941181        1.1268408255        0.2785688394
 H         -4.1247724131        1.2625484258       -0.4344871349
 C         -3.8058241822        1.4552258466        1.6673000712
 C         -4.7408772498        2.6130891310        1.8403583982
 C         -5.2457779253        1.2111483756        1.9995991156
 H         -5.4907274987        0.8564336960        2.9891787164
 H         -5.8752259452        0.8037423252        1.2217054802
 H         -5.0324181352        3.1583161104        0.9554512909
 H         -4.6400965691        3.2267031231        2.7221900571
 H         -3.0789333243        1.2715791826        2.4466056021
 O         -1.8039770374       -0.5854097848        2.2221042862
