  62
        -98.94475143
 C          1.9953979585       -0.3896188853        0.1305267634
 C          2.9970821511       -0.7319724193       -0.8153842548
 C          4.1850526214        0.1295187222       -0.8485198683
 C          4.2477811036        1.1912945633       -0.0247618274
 C          5.4148215903        2.1286722974        0.0807160569
 C          6.4089031905        1.6603811866        1.1526979985
 C          6.7968286812        0.1865428943        1.0332233133
 H          7.5248280598       -0.0227823704        1.8199729106
 H          5.9184544966       -0.4304473625        1.2357985566
 C          7.3877320815       -0.2060356962       -0.3280662289
 H          7.7187797894        0.6868364062       -0.8596771931
 H          8.2691186348       -0.8287046152       -0.1607771426
 C          6.4399395570       -1.0064558076       -1.2232881849
 H          6.0328479577       -1.8514867147       -0.6624461796
 H          7.0214062815       -1.4149361338       -2.0540796622
 C          5.2699097492       -0.2201325019       -1.8280299926
 H          4.7977262587       -0.8547680454       -2.5835750266
 H          5.6465344707        0.6781098121       -2.3217305898
 H          5.9576748308        1.8173709679        2.1352192357
 H          7.3043993009        2.2810979582        1.0874633894
 H          5.9103126940        2.1933649741       -0.8861129168
 H          5.0389744148        3.1165318793        0.3527054531
 O          3.2594888520        1.5051209734        0.8487184958
 C          2.1146774878        0.7277971662        0.9568782799
 O          1.3121715504        1.1428649170        1.8162288863
 O          2.9010598133       -1.7179546324       -1.5932522220
 C          0.7578295145       -1.2715985275        0.1791832135
 C         -0.3900584000       -0.5631940134       -0.4980010734
 C         -0.6842496410       -0.8268306786       -1.8316800547
 C         -1.7242915293       -0.1736154584       -2.4687446472
 C         -2.4916180872        0.7554504912       -1.7891590582
 C         -2.1992029258        1.0309388143       -0.4595070561
 C         -1.1633560376        0.3666731168        0.1818495847
 H         -0.9307296319        0.6037845386        1.2083298873
 N         -2.9802144694        1.9701627634        0.2380419657
 S         -4.6399597537        1.7680247043        0.1580468880
 O         -5.1420017837        2.3659667229       -1.0545090005
 O         -5.1584992511        2.3179956219        1.3911064473
 C         -4.8821889081        0.0003704180        0.1020149712
 C         -4.4047996646       -0.7555126596        1.1546680108
 C         -4.5422948619       -2.1327939578        1.1066421321
 C         -5.1514884885       -2.7283598812        0.0126770120
 C         -5.6298197471       -1.9555138575       -1.0336097599
 C         -5.4918329660       -0.5771629035       -0.9927144103
 H         -5.8435934596        0.0613011286       -1.7866365904
 H         -6.1042646163       -2.4211648563       -1.8823119841
 H         -5.2529280991       -3.8015604535       -0.0225908209
 H         -4.1697008039       -2.7363776871        1.9185721070
 H         -3.9391457351       -0.2629380447        1.9932361512
 H         -2.6722728474        2.1237448761        1.1871643638
 H         -3.3042824492        1.2783153832       -2.2672868867
 H         -1.9404702714       -0.3893572321       -3.5038602382
 H         -0.0786329853       -1.5424583229       -2.3689439638
 H          1.0108911680       -2.1508842092       -0.4278085556
 C          0.4099656537       -1.7331801800        1.5805834208
 C         -0.6127960967       -2.8150228790        1.7537000571
 C          0.8323235004       -3.0978741601        2.0313368003
 H          1.1467326428       -3.2267422867        3.0563532320
 H          1.3772866857       -3.7109822844        1.3286052459
 H         -1.2913440297       -2.7502400100        2.5902051309
 H         -1.0509678197       -3.2325808613        0.8600372100
 H          0.4356655706       -0.9409708342        2.3176332762
