  62
        -98.94263729
 C         -1.9566328811       -1.5567140945       -0.0415151976
 C         -1.5797951728       -0.2805630459       -0.5315283125
 C         -2.6714717612        0.7005735566       -0.6580092493
 C         -3.9287044318        0.3425476567       -0.3438264676
 C         -5.1216985962        1.2517650204       -0.3935470944
 C         -5.3533275357        1.9366907566        0.9604402983
 C         -4.0958676852        2.5762805035        1.5490385670
 H         -4.3842333726        3.0584172973        2.4857102088
 H         -3.3797295412        1.7902738994        1.8000496308
 C         -3.4194166029        3.6035609943        0.6309679479
 H         -3.1551182106        4.4810805446        1.2249111340
 H         -4.1215060399        3.9325119765       -0.1360802498
 C         -2.1323847652        3.1125501277       -0.0349740784
 H         -1.6319131765        3.9798201311       -0.4725365626
 H         -1.4643048337        2.6926647623        0.7209608289
 C         -2.3056494275        2.0729306981       -1.1491973224
 H         -3.0362898446        2.4299674567       -1.8778959068
 H         -1.3399327225        1.9603331718       -1.6505144602
 H         -5.7221498685        1.1902796991        1.6679728481
 H         -6.1269615079        2.6966607471        0.8357537973
 H         -4.9715763020        1.9989146743       -1.1703082534
 H         -5.9999024999        0.6534056154       -0.6425871552
 O         -4.2529099917       -0.8954870487        0.1103637442
 C         -3.2766636289       -1.8581894873        0.3043265026
 O         -3.7028119387       -2.9284534980        0.7831113075
 H          1.6262945908       -2.3400302688       -0.7750878002
 C          1.5119559662       -1.9745033462        0.2333433831
 C          0.2833076267       -2.0676463260        0.8657819080
 C          0.1574485309       -1.5557143066        2.1540598964
 C          1.2326129313       -0.9629385255        2.7880439538
 C          2.4575095768       -0.8670222081        2.1510993813
 C          2.5912985323       -1.3703880029        0.8645066769
 N          3.8296599887       -1.2756602844        0.2017509134
 S          4.5849458049        0.2163035664        0.1237697926
 O          5.5914116151        0.0673746648       -0.9039066842
 O          5.0681236389        0.5729929929        1.4346010587
 C          3.3374312703        1.3728146121       -0.4064841527
 C          2.6766264711        2.1452407371        0.5258492654
 C          1.6952857039        3.0209803089        0.0918333015
 C          1.3922950464        3.1054202240       -1.2572672228
 C          2.0601825067        2.3171712826       -2.1803271788
 C          3.0407127564        1.4387454082       -1.7526709330
 H          3.5905417064        0.8171656061       -2.4413233123
 H          1.8161396494        2.3812508201       -3.2287798383
 H          0.6300390832        3.7909713517       -1.5928072033
 H          1.1682714404        3.6326506722        0.8067688924
 H          2.9455877781        2.0556224976        1.5656649303
 H          3.8206753479       -1.6971763721       -0.7162036805
 H          3.3057175360       -0.4023283079        2.6270797223
 H          1.1177553535       -0.5691486745        3.7868894402
 H         -0.8032860566       -1.6179379678        2.6479800689
 C         -0.9338591981       -2.6557233157        0.1974072405
 H         -1.4149629755       -3.3435450143        0.9119339914
 C         -0.6025678941       -3.4791468712       -1.0384317656
 C         -1.6460335804       -3.7537682520       -2.0785863061
 C         -0.4799926131       -2.8711609435       -2.4023194434
 H          0.2798569914       -3.2550178884       -3.0679433572
 H         -0.6465100932       -1.8096120597       -2.4945736845
 H         -1.6857380813       -4.7395115517       -2.5173222609
 H         -2.6159824466       -3.2970875949       -1.9459797989
 H          0.0705471958       -4.2994657543       -0.8067378929
 O         -0.4071800758        0.0376747625       -0.8534864586
