  62
        -98.93757775
 C          1.8159740762        0.2908104757       -0.3232634601
 C          2.9485594872        0.5854008226       -1.1151232498
 C          4.2489992443        0.5910937408       -0.4228418048
 C          4.2857228202        0.3352399995        0.8966919431
 C          5.5018283813        0.2436658766        1.7765396503
 C          5.9886216269       -1.2116241210        1.8818833102
 C          6.9579612495       -1.6481119521        0.7840412757
 H          7.9201955678       -1.1552233857        0.9382036098
 H          7.1182701360       -2.7224255875        0.9004294704
 C          6.4922053845       -1.3732583519       -0.6481903942
 H          5.4362559258       -1.6308801563       -0.7480640835
 H          7.0502581744       -2.0341458318       -1.3143496923
 C          6.7190833188        0.0807640615       -1.0878952779
 H          7.2471758504        0.0912905342       -2.0436952749
 H          7.3736157055        0.5726209800       -0.3685089045
 C          5.4432883064        0.9142800188       -1.2789392911
 H          5.6874927254        1.9744172607       -1.1514707968
 H          5.0847597259        0.8000188028       -2.3068897014
 H          5.1087101784       -1.8598372256        1.8757381405
 H          6.4862830637       -1.3456183829        2.8444694750
 H          5.1932185359        0.5797130987        2.7686368598
 H          6.2901586867        0.8971115885        1.4148559423
 O          3.1673983219        0.0629103884        1.6241276252
 C          1.9110157360        0.0318971100        1.0438810253
 O          0.9839461886       -0.2301696588        1.8322225868
 O          2.8778464846        0.8341609113       -2.3500249919
 C          0.4458607633        0.2675188395       -0.9739790641
 C         -0.4689010802        1.2765174234       -0.3244389914
 C          0.0191349275        2.5492167682       -0.0375919851
 C         -0.7865845411        3.4979841001        0.5597348719
 C         -2.1041595678        3.2060239304        0.8665152794
 C         -2.6072401675        1.9463308701        0.5695175468
 C         -1.7902641459        0.9899705627       -0.0193243339
 H         -2.2011787233        0.0192336188       -0.2406036313
 N         -3.9348800405        1.6146788854        0.8758222374
 S         -4.8425181560        0.7133874099       -0.2012323628
 O         -4.4761270129        0.9904324741       -1.5704480840
 O         -6.2168589066        0.9971855748        0.1554990000
 C         -4.4902458343       -0.9852354256        0.1984823498
 C         -4.4581683231       -1.9148645512       -0.8220624662
 C         -4.2349661619       -3.2470701836       -0.5103085444
 C         -4.0483595893       -3.6241683112        0.8104693953
 C         -4.0854730172       -2.6782888632        1.8237890213
 C         -4.3132110032       -1.3457102429        1.5194707516
 H         -4.3441824850       -0.5861781659        2.2825729035
 H         -3.9361141697       -2.9745270106        2.8496476175
 H         -3.8713347182       -4.6605938807        1.0511776692
 H         -4.2058802336       -3.9838576149       -1.2975237463
 H         -4.5960487546       -1.5758580871       -1.8365356802
 H         -4.4767893229        2.3593482376        1.2892515633
 H         -2.7363118629        3.9465279718        1.3327252655
 H         -0.3891227713        4.4767179827        0.7833575125
 H          1.0460933206        2.7827935782       -0.2840437537
 H          0.6099773487        0.5816319609       -2.0161683519
 C         -0.1098761446       -1.1414369365       -0.9725630962
 C         -1.0383718993       -1.5939456078       -2.0583061647
 C          0.3682840028       -2.1079240705       -2.0129677180
 H          0.5333350021       -3.1353582848       -1.7257881952
 H          1.0734819444       -1.7393899707       -2.7437003840
 H         -1.8387905079       -2.2699969368       -1.7982984973
 H         -1.2981430396       -0.8794064645       -2.8251169379
 H         -0.2706291124       -1.5221191609        0.0300988797
