  62
        -98.93523325
 C          2.3240004196        1.1057306599       -0.5271229001
 C          3.3394766298        0.6030559803        0.3250251299
 C          3.8655765801       -0.7450554296        0.0416845302
 C          3.3606931702       -1.4251704200       -1.0039989096
 C          3.6913578705       -2.8204645500       -1.4627773892
 C          3.0538118609       -3.8979007300       -0.5718793889
 C          3.1912407909       -3.6523455795        0.9283223810
 H          2.7213857007       -2.6990355896        1.1794212608
 H          2.6253675511       -4.4326803896        1.4444770313
 C          4.6206660510       -3.6766997791        1.4653621909
 H          5.0742180512       -4.6419503190        1.2299371711
 H          4.5567023810       -3.5964069988        2.5534967109
 C          5.5470663807       -2.5666028790        0.9627186106
 H          5.9147986906       -2.7822621991       -0.0368435194
 H          6.4220226007       -2.5525796486        1.6189810705
 C          4.9453806003       -1.1658120591        1.0091994303
 H          4.5428463703       -0.9800962989        2.0115734502
 H          5.7526957401       -0.4342870589        0.8838709400
 H          1.9862233509       -3.9409383603       -0.8031108788
 H          3.4950372511       -4.8627709899       -0.8277255587
 H          3.2880921505       -2.9218051004       -2.4727962892
 H          4.7675438906       -2.9528420098       -1.5195207693
 O          2.3889715700       -0.9019289904       -1.8022480296
 C          1.8372188698        0.3473068195       -1.5907227099
 O          0.9496172496        0.6416283691       -2.4185408099
 O          3.7980773097        1.2599487307        1.2987558697
 C          1.7757225293        2.4844132098       -0.1943683604
 C          0.4897713194        2.3508548497        0.5864848797
 C          0.4084395694        2.7612549100        1.9117144396
 C         -0.7595512605        2.5863744499        2.6341678197
 C         -1.8664771804        1.9924104695        2.0544449200
 C         -1.7908068804        1.5728019292        0.7331884801
 C         -0.6267471605        1.7658041393        0.0057587899
 H         -0.5728624605        1.4236807290       -1.0174737200
 N         -2.9082310503        0.9359524188        0.1349949603
 S         -3.2075006998       -0.6212248912        0.7289989507
 O         -3.4028848198       -0.5365396409        2.1536015107
 O         -2.1778391796       -1.5366992010        0.2801637809
 C         -4.7530783198       -0.9907884117       -0.0762546591
 C         -5.9259890999       -0.5463900419        0.5027657709
 C         -7.1272457099       -0.7987388623       -0.1401282190
 C         -7.1350458298       -1.4846937327       -1.3455666888
 C         -5.9493106997       -1.9244026325       -1.9143649488
 C         -4.7443239097       -1.6745501621       -1.2764605089
 H         -3.7993658997       -2.0053318419       -1.6780123689
 H         -5.9575175897       -2.4593455727       -2.8504862286
 H         -8.0709143198       -1.6803632930       -1.8447186187
 H         -8.0516041699       -0.4603024225        0.2993456810
 H         -5.8706228399       -0.0244605016        1.4434973808
 H         -2.7631160703        0.8451171185       -0.8640683197
 H         -2.7715187603        1.8248025794        2.6140932301
 H         -0.8062660905        2.9094427102        3.6631374496
 H          1.2770214793        3.1996861404        2.3814944094
 H          2.5239736793        2.9382278902        0.4692199794
 C          1.6008763490        3.3792462595       -1.4047644606
 C          1.5503901187        4.8635382995       -1.2069416710
 C          2.7460073988        4.2338310596       -1.8548571509
 H          2.8963504387        4.3747896194       -2.9145868910
 H          3.6638529788        4.1776447000       -1.2879031010
 H          0.8771926285        5.4415027392       -1.8209951111
 H          1.6581630387        5.2367486298       -0.1998229311
 H          0.9713727091        2.9499843591       -2.1729854705
