  62
        -98.94084147
 C         -1.0745413399       -1.5774437804        0.1886213280
 C         -1.3512962305       -0.5408464400       -0.7307299213
 C         -2.4049406410        0.4252113892       -0.3538613506
 C         -2.9789558009        0.3275601281        0.8589769593
 C         -4.0800087913        1.1654784271        1.4547020199
 C         -5.4610526411        0.8230146268        0.8780055398
 C         -5.5058876311        0.7300283777       -0.6442610503
 H         -4.8290509407       -0.0595833117       -0.9746017408
 H         -6.5177120410        0.4290013974       -0.9283140904
 C         -5.1774677319        2.0253773584       -1.3841124895
 H         -5.3914903918        1.8535935190       -2.4420586796
 H         -5.8459311823        2.8161027278       -1.0368313289
 C         -3.7309661021        2.5178117591       -1.2708315992
 H         -3.5645305324        3.0511511886       -0.3389511289
 H         -3.5727218925        3.2427610297       -2.0742929687
 C         -2.6769230216        1.4300765598       -1.4467445100
 H         -1.7097245318        1.9039135204       -1.6499037797
 H         -2.9068842813        0.8508868602       -2.3484961103
 H         -6.1728445215        1.5761705462        1.2207690903
 H         -5.7713557506       -0.1431382637        1.2836990892
 H         -4.0884009811        0.9530059264        2.5261471998
 H         -3.8707942518        2.2229492273        1.3261738906
 O         -2.6211523603       -0.6419394623        1.7487933187
 C         -1.7011850898       -1.6184354116        1.4382499280
 O         -1.5191259493       -2.4592099721        2.3414921174
 O         -0.7719327706       -0.4019628490       -1.8424607613
 C         -0.0844467793       -2.7021751597       -0.0785232128
 C          1.3279986805       -2.2337334292        0.1706873974
 C          2.0788420708       -2.7485701694        1.2206905271
 C          3.3605366106       -2.2855899889        1.4667432473
 C          3.9152909600       -1.2938308681        0.6769664079
 C          3.1661509397       -0.7671594278       -0.3669536117
 C          1.8900260899       -1.2439713283       -0.6235400219
 H          1.3080885896       -0.8189261881       -1.4280090616
 N          3.7006681691        0.2907557330       -1.1413442510
 S          3.7926949783        1.7568177525       -0.3372015001
 O          4.1728405078        2.7331350833       -1.3319625594
 O          4.6837046485        1.6074627922        0.7849670398
 C          2.1400225782        2.0982245512        0.2463724402
 C          1.6616630786        1.4118143503        1.3452704398
 C          0.3671781285        1.6556466293        1.7742454400
 C         -0.4164494220        2.5870294593        1.1119815607
 C          0.0780391575        3.2683448303        0.0108416411
 C          1.3647221777        3.0142680413       -0.4351518391
 H          1.7881924973        3.5185628520       -1.2890629288
 H         -0.5350373629        3.9940990103       -0.4993296084
 H         -1.4182162921        2.7801373285        1.4602497909
 H         -0.0267958912        1.1136652385        2.6202864697
 H          2.3012069690        0.7083571703        1.8533519493
 H          3.1904448690        0.4311192033       -2.0034510809
 H          4.8992899998       -0.8996698977        0.8716914381
 H          3.9311865508       -2.6963369392        2.2858939870
 H          1.6436902112       -3.5044050401        1.8583861866
 H         -0.3144922888       -3.4787067703        0.6630217667
 C         -0.2291157890       -3.3040842489       -1.4628655132
 C          0.3135222017       -4.6769905585       -1.7165332741
 C         -1.1676610084       -4.4527514793       -1.6693435039
 H         -1.7282863685       -4.5006997490       -2.5908561239
 H         -1.7114045382       -4.8163387201       -0.8093080441
 H          0.7732170117       -4.8809079176       -2.6713855243
 H          0.7740207420       -5.1941275788       -0.8882792545
 H         -0.1533760195       -2.5772520784       -2.2604376627
