  62
        -98.93484808
 C          2.1035626968        0.9991784935        0.2956985680
 C          2.0107509458        0.0156619355       -0.7176406718
 C          2.2205824696       -1.3837918323       -0.2970617593
 C          2.4629878971       -1.6672154448        0.9947393382
 C          2.6487895443       -2.9909001261        1.7075421919
 C          2.9726038072       -4.2627314740        0.9269893238
 C          4.3290452576       -4.2595001853        0.2239120793
 H          5.1152580090       -4.2684184620        0.9827746794
 H          4.4126246360       -5.1822954731       -0.3542809234
 C          4.5905672380       -3.0713847699       -0.6985511865
 H          4.6394227022       -2.1531364201       -0.1097566681
 H          5.5733367017       -3.2137450831       -1.1559481259
 C          3.5766200213       -2.8816162748       -1.8258278997
 H          3.9762072175       -2.1213349182       -2.5020542681
 H          3.4735878025       -3.8105462116       -2.3898143345
 C          2.1764323699       -2.4147697727       -1.3874732565
 H          1.6903654069       -1.9360275003       -2.2428840709
 H          1.5475483450       -3.2517618808       -1.0913455291
 H          2.1792689004       -4.4806737886        0.2178752935
 H          2.9799673116       -5.0783664705        1.6553446544
 H          3.4335580713       -2.8175535138        2.4508004411
 H          1.7214205581       -3.1555036562        2.2681312294
 O          2.5310455174       -0.6859677608        1.9418512648
 C          2.3439285302        0.6446550165        1.6242411733
 O          2.4316826018        1.4181729301        2.6009883397
 H         -0.3136065109        1.0486633952       -0.7517464923
 C         -0.5858972248        1.9471116471       -0.2193642283
 C          0.3927645441        2.8058523085        0.2565880917
 C         -0.0013729580        3.9622897847        0.9204345580
 C         -1.3420609919        4.2399388721        1.1165192070
 C         -2.3138936923        3.3579215913        0.6795492716
 C         -1.9295951769        2.2021550834        0.0098103076
 N         -2.8796280425        1.2742068709       -0.4459807488
 S         -2.4868857828       -0.3663155696       -0.3016561157
 O         -1.7408254756       -0.5919144312        0.9164926187
 O         -1.8766058545       -0.8108176962       -1.5283677960
 C         -4.1207418931       -1.0714932726       -0.1639005355
 C         -4.8276265355       -1.3524092457       -1.3179086049
 C         -6.1129180651       -1.8595035126       -1.2096270891
 C         -6.6673511179       -2.0750612279        0.0433340164
 C         -5.9450640924       -1.7906651109        1.1926407139
 C         -4.6597216599       -1.2818023288        1.0913570780
 H         -4.0567715662       -1.0533622345        1.9558050969
 H         -6.3767502122       -1.9625763950        2.1654171412
 H         -7.6676586630       -2.4697043077        0.1251419289
 H         -6.6759580681       -2.0845152650       -2.1009150365
 H         -4.3504124096       -1.1762038028       -2.2678187336
 H         -3.8131670481        1.4660057125       -0.1078608782
 H         -3.3595996523        3.5583346704        0.8568755559
 H         -1.6333868765        5.1404490131        1.6353690911
 H          0.7522894612        4.6346339953        1.3021203952
 C          1.8577626815        2.4815876503        0.0698568193
 H          2.4129759560        3.0026093333        0.8635006652
 C          2.3410307038        3.0010266459       -1.2700048616
 C          2.7536580308        4.4355721674       -1.3967859706
 C          3.7867200337        3.3509929518       -1.4460921548
 H          4.2580254129        3.1215569553       -2.3896359274
 H          4.4364645470        3.2256492945       -0.5918638326
 H          2.5133357070        4.9586648286       -2.3094139782
 H          2.7130144159        5.0519466476       -0.5117843242
 H          1.8346898895        2.5443869232       -2.1102419674
 O          1.7607553064        0.2625640207       -1.9277324034
