  62
        -98.94055676
 C         -1.7474334530       -0.3856503655        0.4061270686
 C         -2.9190147494       -0.5979857761        1.1764441391
 C         -4.1706810708       -0.7626332082        0.4261329768
 C         -4.1449721752       -0.6838854088       -0.9166446029
 C         -5.3520671599       -0.7743227603       -1.8037510520
 C         -5.9538090082        0.6132695820       -2.0667208957
 C         -6.1643663083        1.4457683487       -0.8019700638
 H         -5.1913657999        1.6851139365       -0.3666407911
 H         -6.6201418181        2.3904357510       -1.1065099511
 C         -7.0433177216        0.7737622212        0.2621930214
 H         -7.7572403111        1.5080096421        0.6414780611
 H         -7.6195968882       -0.0344914000       -0.1895278441
 C         -6.2755454906        0.2341591239        1.4703781766
 H         -7.0003186801       -0.0183142621        2.2490070938
 H         -5.6256612636        1.0162632344        1.8712625377
 C         -5.4240591724       -1.0160144667        1.2157670969
 H         -6.0335413391       -1.7841203792        0.7352081165
 H         -5.0947617621       -1.3957220310        2.1874897631
 H         -6.9074209606        0.4839732301       -2.5818223184
 H         -5.2809472100        1.1624938275       -2.7293458655
 H         -5.0479864364       -1.2143623913       -2.7549150469
 H         -6.0925488547       -1.4200715707       -1.3356506315
 O         -3.0079161297       -0.4596023277       -1.6209345484
 C         -1.7826138861       -0.2922956954       -0.9861980320
 O         -0.8386962748       -0.0724824985       -1.7663852909
 O         -2.9175100328       -0.6416331257        2.4359392375
 C         -0.4412290732       -0.1950981008        1.1552873529
 C          0.3057846335        1.0008896823        0.6208853910
 C         -0.3456467221        2.2315551880        0.5710667731
 C          0.2934750402        3.3518128272        0.0796721858
 C          1.6092232628        3.2784207956       -0.3451694715
 C          2.2730842072        2.0613245341       -0.2856179196
 C          1.6188444558        0.9314868856        0.1863240306
 H          2.1471879413       -0.0063421788        0.1945481967
 N          3.6094358535        1.9403170205       -0.7004583550
 S          4.6754501590        1.1131935367        0.2920774715
 O          4.3161425409        1.2536821484        1.6844795942
 O          5.9841118467        1.6092763887       -0.0786700848
 C          4.5519902880       -0.5922912395       -0.2017885669
 C          4.6113590547       -0.9014380879       -1.5460565022
 C          4.5587908131       -2.2321517861       -1.9286705889
 C          4.4548837917       -3.2256950033       -0.9667879402
 C          4.3993447553       -2.8987626846        0.3796643939
 C          4.4489867063       -1.5693394612        0.7685767768
 H          4.4002781319       -1.2688942659        1.8032532365
 H          4.3154995003       -3.6723278004        1.1265171474
 H          4.4135255992       -4.2608058910       -1.2675941892
 H          4.5978187915       -2.4910003711       -2.9744689438
 H          4.6930779332       -0.1037600043       -2.2651433189
 H          4.0211013615        2.7925779337       -1.0526187357
 H          2.1139029578        4.1548301776       -0.7232773546
 H         -0.2310454385        4.2947320241        0.0352889848
 H         -1.3703657967        2.2936066065        0.9129034262
 H         -0.7522579282        0.0411419969        2.1876665944
 C          0.4175999729       -1.4483683293        1.2409066092
 C         -0.1900539929       -2.8150184650        1.1467796349
 C          0.6912792422       -2.3102533953        0.0459312135
 H          1.6773279190       -2.7381108140       -0.0609383559
 H          0.2370428576       -2.0210562788       -0.8883193450
 H          0.1884124338       -3.5881565705        1.7982528436
 H         -1.2528654393       -2.8797266496        0.9638691050
 H          1.2289378521       -1.3331306672        1.9541228351
