  62
        -98.94535942
 C          2.4605521316        1.2003514945        0.0017402075
 C          3.2446681857        0.4932430815        0.9436529473
 C          3.9754360873       -0.6682624527        0.4249674891
 C          3.8719206013       -0.9950959164       -0.8763388509
 C          4.5753155591       -2.1366186970       -1.5595748315
 C          3.8585898811       -3.4867612768       -1.4199579209
 C          3.9340026972       -4.1229362291       -0.0313238300
 H          3.5828560368       -5.1518836428       -0.1309054580
 H          4.9743610834       -4.1630670661        0.2927045390
 C          3.0875853769       -3.4147515682        1.0358140971
 H          2.3533879731       -2.7691148108        0.5465841241
 H          2.5259757704       -4.1574437387        1.6074142761
 C          3.8939835229       -2.5853632932        2.0356788507
 H          4.5374932186       -3.2449272129        2.6217386796
 H          3.1951034918       -2.1003572292        2.7221665710
 C          4.7636035530       -1.4950039591        1.3959462264
 H          5.1167861948       -0.8303240202        2.1880466739
 H          5.6260692339       -1.9425562588        0.9030292804
 H          4.3157046197       -4.1737868780       -2.1358052508
 H          2.8115444520       -3.3585304858       -1.7062085786
 H          5.5925176648       -2.2222605173       -1.1763847637
 H          4.6226266243       -1.8810767788       -2.6202848423
 O          3.1059301405       -0.2895429504       -1.7509517247
 C          2.3665096812        0.8093764920       -1.3341197622
 O          1.6875775473        1.3413165270       -2.2324484880
 O          3.3268113718        0.8151862016        2.1598473247
 C          1.6640073828        2.4061468804        0.4652841689
 C          0.1900607411        2.1781451192        0.2341700645
 C         -0.6527285867        3.1287435648       -0.3260859434
 C         -1.9945107205        2.8483569527       -0.5199260517
 C         -2.5258966302        1.6251168691       -0.1561814832
 C         -1.6930352275        0.6676276480        0.4083284575
 C         -0.3513266635        0.9532849280        0.6054137652
 H          0.2963725644        0.2036132382        1.0447023905
 N         -2.2236971498       -0.5763952142        0.7945060215
 S         -3.1484746584       -1.4245705045       -0.3234374148
 O         -3.0200155304       -2.8136299780        0.0617125205
 O         -2.7806560358       -1.0960720404       -1.6810301823
 C         -4.8105146540       -0.8819107029        0.0140854039
 C         -5.5660437615       -0.3050200321       -0.9876963338
 C         -6.8569973446        0.1097467658       -0.6985872719
 C         -7.3666708953       -0.0600841909        0.5795544835
 C         -6.5960443004       -0.6449641652        1.5734977639
 C         -5.3052378319       -1.0619768217        1.2910168598
 H         -4.6749258081       -1.5244342868        2.0320244084
 H         -6.9959845716       -0.7764094126        2.5659738454
 H         -8.3707386182        0.2648188780        0.8022009282
 H         -7.4576270538        0.5635913900       -1.4703866640
 H         -5.1257186175       -0.1895845672       -1.9655494941
 H         -1.5441683481       -1.1880118450        1.2236577832
 H         -3.5682800729        1.4011793880       -0.3124715072
 H         -2.6360341292        3.5946494752       -0.9630318268
 H         -0.2575071505        4.0866412147       -0.6212427552
 H          1.8338326762        2.4676133020        1.5509886210
 C          2.1926414210        3.6691733585       -0.1812445523
 C          2.0851533297        4.9848045383        0.5285956378
 C          3.4179498188        4.3143592040        0.3912561807
 H          4.1434187807        4.7363013728       -0.2878999386
 H          3.8551849608        3.8562447485        1.2664851065
 H          1.8975098404        5.8722754951       -0.0566924941
 H          1.6197930580        4.9905273458        1.5025064028
 H          2.0916082963        3.6559748946       -1.2607921304
