  62
        -98.94151527
 C         -1.7304076128       -0.9079096032        0.2212233986
 C         -1.9495468541        0.4752957022       -0.0182325025
 C         -3.2420581197        0.8428761740       -0.6089036214
 C         -4.1233762470       -0.1278957025       -0.9094331233
 C         -5.4966751403        0.1003250823       -1.4698693899
 C         -6.5385007675        0.2342235501       -0.3504884938
 C         -6.1379198971        1.2157210152        0.7508910372
 H         -5.2678152105        0.8208453356        1.2803376697
 H         -6.9606144300        1.2528638503        1.4683145285
 C         -5.8274010545        2.6347461955        0.2543669322
 H         -6.3150835538        3.3519644191        0.9179993991
 H         -6.2472852843        2.7787458952       -0.7418038036
 C         -4.3389706203        2.9878990398        0.2330559671
 H         -3.8939932610        2.7552342839        1.2036988937
 H         -4.2485250961        4.0667551472        0.0814658561
 C         -3.5049622006        2.3017589343       -0.8563869855
 H         -2.5229861368        2.7830714181       -0.8766686163
 H         -3.9796095604        2.4472011141       -1.8289346118
 H         -6.6867712275       -0.7481960073        0.1037974044
 H         -7.4844589864        0.5488518411       -0.7950670495
 H         -5.4881711378        0.9998523395       -2.0823716319
 H         -5.7582548107       -0.7534150515       -2.0972972610
 O         -3.8725125467       -1.4415161397       -0.6902232067
 C         -2.6813235270       -1.8699280258       -0.1199803977
 O         -2.6191235025       -3.1080088541        0.0149753517
 H          1.9450319688       -0.1089902286        0.2453075732
 C          1.7835389298       -1.0004797329       -0.3409650572
 C          0.6102048746       -1.7225258814       -0.1801429367
 C          0.4076981484       -2.8569041184       -0.9590587816
 C          1.3659374392       -3.2538183911       -1.8733947186
 C          2.5470067119       -2.5457689310       -2.0127935308
 C          2.7583845676       -1.4105974722       -1.2395956152
 N          3.9370308610       -0.6639529114       -1.3648097253
 S          4.6335173303        0.0541240928       -0.0236069264
 O          6.0176923797        0.2484051815       -0.3994496509
 O          4.4031111867       -0.7183142764        1.1745315406
 C          3.8402315834        1.6423746713        0.0950639048
 C          3.2954639317        2.0482949784        1.2966374560
 C          2.6991294087        3.2965991346        1.3755430252
 C          2.6599747296        4.1133964198        0.2566136529
 C          3.2153682106        3.6927441114       -0.9423212760
 C          3.8134456931        2.4461721441       -1.0271443312
 H          4.2572907321        2.0859271595       -1.9402284888
 H          3.1809679215        4.3316443474       -1.8101670225
 H          2.1913234555        5.0827496506        0.3202208906
 H          2.2633339994        3.6236805879        2.3059875343
 H          3.3416779465        1.3790362581        2.1417849533
 H          4.6268013146       -1.0525531775       -1.9908902865
 H          3.2997636177       -2.8676306284       -2.7164744889
 H          1.1976470890       -4.1336823560       -2.4761696818
 H         -0.5072512693       -3.4173184018       -0.8441703788
 C         -0.3990300676       -1.2767435535        0.8511619828
 H         -0.0229400344       -0.3422018954        1.2897431575
 C         -0.5013343159       -2.3119450375        1.9555181562
 C          0.6646987517       -2.4884227924        2.8804074148
 C         -0.6012304351       -1.8607935423        3.3801473692
 H         -1.2245116168       -2.4258869777        4.0569309036
 H         -0.6027141513       -0.7972713886        3.5700038226
 H          1.5283028593       -1.8576209862        2.7257955419
 H          0.9097361006       -3.4855301204        3.2132082294
 H         -1.0557501756       -3.1960144686        1.6694193263
 O         -1.0994923860        1.3634267459        0.2576131028
