  62
        -98.94494069
 C          2.1996516623        0.9663317004        0.5407458561
 C          2.3264719131        0.1508811721       -0.6101427661
 C          3.1257607912       -1.0694636132       -0.4387812022
 C          3.6376809357       -1.3721173104        0.7679438054
 C          4.4555020597       -2.5895858090        1.1043514395
 C          5.9478445721       -2.4492389315        0.7736727470
 C          6.2920712111       -2.4944727083       -0.7155847656
 H          5.8406309291       -3.3796885658       -1.1646746051
 H          7.3754167065       -2.6076365197       -0.7899408554
 C          5.8716554558       -1.2446524188       -1.5015142611
 H          6.6941521965       -0.9261283947       -2.1457044103
 H          5.6739948601       -0.4260494689       -0.8057376213
 C          4.6466269688       -1.4396342689       -2.3951752369
 H          4.8762008242       -2.1631731664       -3.1805126684
 H          4.4153436605       -0.4848374411       -2.8739665272
 C          3.3906576625       -1.9110248409       -1.6503786606
 H          3.4891389939       -2.9602338107       -1.3716673277
 H          2.5321720151       -1.8071075356       -2.3190959702
 H          6.4690612400       -3.2708731045        1.2702251208
 H          6.3140662672       -1.5145144682        1.2043432342
 H          4.3543237184       -2.7442070497        2.1808719642
 H          4.0466563248       -3.4594785722        0.5892122772
 O          3.4438628423       -0.5888794280        1.8631550931
 C          2.7371747393        0.6005704092        1.7738571490
 O          2.6466528214        1.2260238815        2.8507084824
 H         -0.1817394530        0.4460565410        1.5306505944
 C         -0.6907859659        0.9860329150        0.7404661816
 C         -0.0067210761        1.9866564700        0.0606493684
 C         -0.6696918316        2.6721655717       -0.9480814474
 C         -1.9759004457        2.3478880418       -1.2729160859
 C         -2.6500093062        1.3473403981       -0.5978919468
 C         -1.9982916506        0.6592882146        0.4176310999
 N         -2.6797098241       -0.3484311894        1.1244786750
 S         -3.4406070969       -1.5567219696        0.2382644777
 O         -3.5027716769       -2.6938103860        1.1314602326
 O         -2.7938701717       -1.7737083737       -1.0349470588
 C         -5.0872116352       -0.9249949675       -0.0082825054
 C         -5.5940189038       -0.8026246442       -1.2871852414
 C         -6.8806157460       -0.3138107344       -1.4538739379
 C         -7.6332572511        0.0408317105       -0.3448100278
 C         -7.1103908063       -0.0908883138        0.9331641840
 C         -5.8255599199       -0.5798585580        1.1068396265
 H         -5.3833116505       -0.7018214399        2.0814798230
 H         -7.6987457691        0.1856465511        1.7931700147
 H         -8.6334230739        0.4221043895       -0.4772265271
 H         -7.2887755700       -0.2113722664       -2.4465166483
 H         -4.9692106637       -1.0861148409       -2.1193110353
 H         -2.1327930091       -0.7549556421        1.8700177225
 H         -3.6650179463        1.0893038087       -0.8518554651
 H         -2.4763486542        2.8832116296       -2.0652821540
 H         -0.1609774001        3.4529617439       -1.4887861537
 C          1.4207321869        2.2676037745        0.4648959325
 H          1.4097628730        2.6750154531        1.4866136536
 C          2.1294824299        3.2492408943       -0.4444929670
 C          1.9842820076        4.7237890454       -0.2219080840
 C          3.2776609053        4.0405766759        0.1032163653
 H          4.1318223091        4.2182145508       -0.5328408187
 H          3.5322148022        3.8893829665        1.1424950089
 H          1.3624740980        5.0462353831        0.5993887294
 H          1.9532847273        5.3749408603       -1.0823377350
 H          2.2121174603        2.8876204716       -1.4629331486
 O          1.8029231438        0.4243665207       -1.7208616859
