  62
        -98.93970647
 C         -2.1156148619       -1.3746778972        0.6232103690
 C         -1.9969268295       -0.1021982015        1.2406381378
 C         -3.0530166794        0.8683052852        0.9413322615
 C         -4.0701162223        0.5139861286        0.1355008292
 C         -5.2375523843        1.3814733083       -0.2499152712
 C         -4.9537006564        2.3175790714       -1.4327650307
 C         -4.0257180557        3.4935249266       -1.1248406279
 H         -4.0896998757        4.1804320451       -1.9711548711
 H         -4.3942239022        4.0247954827       -0.2467786362
 C         -2.5556046338        3.1031778413       -0.9150750855
 H         -2.3834062821        2.1017444340       -1.3163497906
 H         -1.9158112253        3.7869810915       -1.4770942297
 C         -2.0897538650        3.1391520080        0.5406771123
 H         -2.1211516650        4.1666094881        0.9097271149
 H         -1.0538717108        2.7928621807        0.5764729216
 C         -2.9112608660        2.2560093231        1.4884958560
 H         -2.3784388112        2.1855437222        2.4397854306
 H         -3.8909788882        2.6986958051        1.6667918876
 H         -4.5352625086        1.7276834096       -2.2516506279
 H         -5.9133086125        2.7175269606       -1.7687414024
 H         -6.0478145104        0.7058804507       -0.5326120854
 H         -5.5588887972        1.9676472602        0.6115400647
 O         -4.1589441044       -0.7195199424       -0.4249541682
 C         -3.1695271393       -1.6817118363       -0.2378060997
 O         -3.3702998915       -2.7294637311       -0.8777548999
 O         -1.0481643379        0.2003762373        2.0128627487
 C         -0.9862377376       -2.3496585769        0.9053735441
 C          0.1727204742       -2.0274916146       -0.0033209686
 C         -0.0036620982       -1.9341745527       -1.3804739775
 C          1.0591191914       -1.6039368708       -2.2011454320
 C          2.3116364020       -1.3503600865       -1.6683319182
 C          2.4938441692       -1.4234864315       -0.2937571349
 C          1.4263302076       -1.7669979003        0.5275619276
 H          1.5692252012       -1.8131815005        1.5983670012
 N          3.7595113680       -1.1700808856        0.2627368895
 S          4.6043568373        0.2075846930       -0.1720603522
 O          4.9882543950        0.1132444340       -1.5574935272
 O          5.6806048316        0.2984129633        0.7871111239
 C          3.4664799829        1.5604850083        0.0584443763
 C          2.6794249105        1.9792994376       -0.9952234594
 C          1.7772498273        3.0100832315       -0.7864926524
 C          1.6789465048        3.6017476683        0.4632640741
 C          2.4737971198        3.1665832602        1.5124274065
 C          3.3735314234        2.1329693694        1.3115549567
 H          4.0172123378        1.7732984514        2.0982439374
 H          2.3915464046        3.6264457643        2.4840719323
 H          0.9799069229        4.4081034124        0.6203645504
 H          1.1532439886        3.3475163378       -1.5986537780
 H          2.7915002091        1.5048281781       -1.9560688801
 H          3.7896750964       -1.2883575135        1.2652089855
 H          3.1477226079       -1.0915757502       -2.2974637796
 H          0.9123280704       -1.5423450422       -3.2691014047
 H         -0.9832763993       -2.1221441688       -1.7959342576
 H         -0.6664441590       -2.1206906098        1.9348542622
 C         -1.3918799279       -3.8140716841        0.8763861019
 C         -0.9556910908       -4.7755466877       -0.1838004602
 C         -0.3750972595       -4.8710939118        1.1932469558
 H         -0.6644196374       -5.6974949606        1.8244530356
 H          0.6483880402       -4.5517678091        1.3232889805
 H         -1.6681471776       -5.5203530622       -0.5037041876
 H         -0.3224626361       -4.4127774436       -0.9779863050
 H         -2.3893552803       -3.9655394394        1.2746892791
