  62
        -98.93930338
 C          0.2036795499        1.7686229880        0.5364011115
 C          0.9019315604        1.5068925753       -0.6636903951
 C          2.1978868382        0.8134860586       -0.5346992539
 C          2.6447969525        0.4873133789        0.6911295798
 C          3.9449194072       -0.1704839468        1.0791677260
 C          5.2071456874        0.3199064749        0.3530656180
 C          5.7813627541       -0.7077282828       -0.6237885649
 H          6.8443716064       -0.4994623069       -0.7643497793
 H          5.7019564423       -1.6983545705       -0.1719249758
 C          5.1289960506       -0.7273327888       -2.0051957167
 H          5.4333772702        0.1629176292       -2.5599050272
 H          5.5209833762       -1.5935284600       -2.5432102381
 C          3.6004986410       -0.7975952924       -2.0093210546
 H          3.2888915448       -1.1972174870       -2.9763884369
 H          3.2426622679       -1.4887251254       -1.2480710057
 C          2.9213925897        0.5676806574       -1.8302562298
 H          3.6467337504        1.3712297102       -1.9886398785
 H          2.1552014834        0.7021725653       -2.6002872400
 H          5.9669957692        0.5268306258        1.1085507683
 H          5.0007020184        1.2577528301       -0.1599033830
 H          4.0426010873        0.0088712961        2.1523038980
 H          3.8434343833       -1.2493108229        0.9495939899
 O          1.9123350235        0.7218023269        1.8195209072
 C          0.6841208937        1.3531422006        1.7756337781
 O          0.1295788859        1.4857828501        2.8867572182
 H         -1.5286909047       -0.1183422686        0.3739929915
 C         -2.1714963171        0.4001284253       -0.3224492689
 C         -2.0940390765        1.7840203395       -0.4135692248
 C         -2.9318077514        2.4391056622       -1.3068631255
 C         -3.8131932260        1.7188377060       -2.0942813877
 C         -3.8905301839        0.3422183900       -1.9962371171
 C         -3.0611806452       -0.3226687535       -1.0991899080
 N         -3.0975651934       -1.7187207062       -0.9890408946
 S         -2.7378917885       -2.4877008520        0.4469197837
 O         -3.3362953254       -3.7986702464        0.3039955968
 O         -3.1662315701       -1.7211757843        1.5933215071
 C         -0.9692326929       -2.6845138739        0.4337952022
 C         -0.3977585850       -3.3261476938       -0.6474165235
 C          0.9654053479       -3.5692484446       -0.6386205824
 C          1.7286690119       -3.1761291471        0.4502988410
 C          1.1439623175       -2.5207472018        1.5224346918
 C         -0.2192176765       -2.2704819242        1.5155894376
 H         -0.7072796425       -1.7581096219        2.3313004716
 H          1.7351736000       -2.2000966112        2.3658550242
 H          2.7854379403       -3.3944817536        0.4679275036
 H          1.4283136256       -4.0695778877       -1.4738790064
 H         -1.0280455707       -3.6322658033       -1.4654741462
 H         -3.8314261405       -2.1784940606       -1.5070136821
 H         -4.5807439910       -0.2174672632       -2.6087583143
 H         -4.4539446612        2.2383662865       -2.7905694684
 H         -2.8917186903        3.5126541803       -1.3913274847
 C         -1.1222597533        2.5030630440        0.4902337673
 H         -1.5269509137        2.4689081290        1.5134062236
 C         -0.8964634644        3.9507038271        0.1025215041
 C         -1.7962866846        5.0273428709        0.6279629455
 C         -0.3939346623        4.9056594317        1.1417039542
 H          0.3306720888        5.6514466622        0.8511354944
 H         -0.2439487950        4.5165676613        2.1386850106
 H         -2.0334332428        5.8619503670       -0.0145484246
 H         -2.6017125472        4.7307142483        1.2830141834
 H         -0.5043416307        4.0532068487       -0.9029016461
 O          0.4690103843        1.8423210764       -1.7974131380
