  62
        -98.93930111
 C         -2.0262655253       -0.8881594769        0.0210366024
 C         -2.3157065868        0.0932217892        0.9938203209
 C         -2.3552679166        1.4909679871        0.5326767138
 C         -2.1117774423        1.7638185410       -0.7630033172
 C         -2.0164762240        3.0822855630       -1.5032775946
 C         -2.5159328532        4.3765248935       -0.8664456198
 C         -4.0304769332        4.4517151863       -0.6750729938
 H         -4.2596520158        5.3667727584       -0.1248822245
 H         -4.5006884531        4.5265054686       -1.6585887995
 C         -4.6618781267        3.2652174174        0.0484449444
 H         -4.5187454570        2.3575058156       -0.5412159424
 H         -5.7385589105        3.4447572981        0.1094592615
 C         -4.1513209180        3.0192600960        1.4666923263
 H         -4.7921139948        2.2586192065        1.9203122877
 H         -4.2472812623        3.9327694965        2.0565508673
 C         -2.6995110412        2.5199512534        1.5711678927
 H         -1.9903651453        3.3443635854        1.5404219913
 H         -2.5789552674        2.0258517743        2.5399866223
 H         -2.2274843575        5.1861093953       -1.5424501741
 H         -2.0016950122        4.5536724061        0.0736218607
 H         -2.5343620004        2.9275615508       -2.4554281933
 H         -0.9537607183        3.1989204235       -1.7457453761
 O         -1.8451860225        0.7786140040       -1.6702461841
 C         -1.7704196652       -0.5538166492       -1.3073471278
 O         -1.4941817182       -1.3283021861       -2.2441269539
 O         -2.5220403154       -0.1850132093        2.2079773378
 C         -1.8872719879       -2.3382617159        0.4455583704
 C         -0.4854473935       -2.8103964322        0.1437987978
 C         -0.1945563830       -4.0512100447       -0.4078733428
 C          1.1141203126       -4.3970288760       -0.6990420420
 C          2.1517584189       -3.5151813618       -0.4616678420
 C          1.8724587522       -2.2788261453        0.1110718575
 C          0.5665846157       -1.9489003655        0.4288848242
 H          0.3632091925       -0.9846692628        0.8732188819
 N          2.9007722245       -1.3604410516        0.3905981196
 S          2.5529908375        0.2871271912        0.2511794200
 O          1.9307531907        0.7348061774        1.4730471129
 O          1.8335528705        0.5556849401       -0.9738013793
 C          4.2088847828        0.9438562681        0.1553789638
 C          4.9314938887        1.0892920689        1.3247064556
 C          6.2316004898        1.5636849974        1.2539657039
 C          6.7849448652        1.8820230487        0.0224723533
 C          6.0469798284        1.7328728311       -1.1421060265
 C          4.7463156898        1.2575280178       -1.0784951845
 H          4.1310749051        1.1314232964       -1.9552118959
 H          6.4779026497        1.9842443397       -2.0977677870
 H          7.7968651682        2.2512699486       -0.0300881733
 H          6.8072149477        1.6836672968        2.1574375688
 H          4.4544636284        0.8373273235        2.2573768060
 H          3.7674034999       -1.5927972159       -0.0761044401
 H          3.1677412289       -3.7767446618       -0.7153703034
 H          1.3261366562       -5.3612526783       -1.1355974685
 H         -0.9934343847       -4.7415587431       -0.6239869008
 H         -2.0269187862       -2.3403784747        1.5374741302
 C         -2.9641157474       -3.1931596464       -0.1888169941
 C         -3.4824245301       -4.4087494920        0.5185070613
 C         -4.3386893630       -3.1843505218        0.4077836466
 H         -5.1889048457       -3.2042619389       -0.2572378395
 H         -4.4892166861       -2.5808492837        1.2911011183
 H         -3.7495851147       -5.2730589781       -0.0705514907
 H         -3.0590651269       -4.6433538952        1.4833869619
 H         -2.8872195985       -3.2185051102       -1.2701194782
