  62
        -98.93593125
 C         -1.7196293846       -1.0301213216       -0.0152252321
 C         -2.2899025985        0.2205366988       -0.3425736602
 C         -3.7563604596        0.3309547890       -0.2085312654
 C         -4.4553794740       -0.7309241993        0.2310778254
 C         -5.9427911088       -0.8621168947        0.4418937791
 C         -6.6484002835        0.3167050632        1.1298581974
 C         -7.5558928235        1.1138506742        0.1913078187
 H         -8.0724359843        0.4147958867       -0.4697094798
 H         -8.3175060082        1.6206093309        0.7881995372
 C         -6.8481409465        2.1747072420       -0.6499390666
 H         -7.5732255071        2.5653472205       -1.3678681217
 H         -6.5485106197        3.0052873956       -0.0070614129
 C         -5.6148658998        1.6888368154       -1.4142203292
 H         -5.4510023159        2.3709675280       -2.2513251903
 H         -5.7926561610        0.7017581364       -1.8395586886
 C         -4.3330868191        1.6731114815       -0.5676903041
 H         -3.5286199809        2.1814641936       -1.1088130321
 H         -4.4847306332        2.2488605570        0.3500401510
 H         -5.9112643117        0.9721106994        1.5910362058
 H         -7.2674407115       -0.0881881848        1.9320803468
 H         -6.0646706171       -1.7678906291        1.0401739585
 H         -6.4127498257       -1.0623796152       -0.5241753426
 O         -3.8580015439       -1.9176515450        0.5415255622
 C         -2.4932402969       -2.1021530867        0.4258157778
 O         -2.0949788313       -3.2396651901        0.7476054773
 O         -1.6112462890        1.2066328943       -0.7339315110
 C         -0.2212168753       -1.2404597706       -0.1453420809
 C          0.5159820374       -0.2198080162        0.6856862394
 C          0.1506970213       -0.0610459879        2.0210175636
 C          0.7751524737        0.8763405224        2.8189831009
 C          1.7891931474        1.6674448878        2.3071588155
 C          2.1696303635        1.5094031366        0.9807709022
 C          1.5418839938        0.5624659305        0.1804058489
 H          1.8468695041        0.4747688050       -0.8486838451
 N          3.1900997750        2.3010395347        0.4369022304
 S          4.2530034864        1.6699742014       -0.6802712365
 O          5.4231876188        2.5164018389       -0.5793962320
 O          3.6441119314        1.5987273118       -1.9843090919
 C          4.6413875228        0.0277447758       -0.0980619902
 C          4.5759042526       -1.0341376537       -0.9756728743
 C          4.8867323091       -2.3052278335       -0.5191311337
 C          5.2539484975       -2.4915837069        0.8040989531
 C          5.3204852785       -1.4134845885        1.6736128317
 C          5.0148269773       -0.1405566381        1.2209258241
 H          5.0668670616        0.7151309823        1.8738787805
 H          5.6084652415       -1.5615898141        2.7018890535
 H          5.4908569435       -3.4821094270        1.1592917492
 H          4.8383404865       -3.1430712778       -1.1963737176
 H          4.2792480270       -0.8456332996       -1.9944839269
 H          3.6420503950        2.9286919090        1.0845398876
 H          2.2721448609        2.4091098567        2.9249534867
 H          0.4726839260        0.9935038796        3.8486954690
 H         -0.6441608741       -0.6775445799        2.4188522944
 H         -0.0177211166       -2.2364254161        0.2745033925
 C          0.1717588848       -1.2398633249       -1.6074439125
 C          1.3520959507       -2.0350428043       -2.0740641867
 C         -0.0362961959       -2.4881671216       -2.4094952182
 H         -0.3796673206       -2.3954358940       -3.4289677569
 H         -0.4357299062       -3.3475110800       -1.8905193087
 H          1.9612326114       -1.6269704072       -2.8665881547
 H          1.9031367504       -2.5923022709       -1.3318391762
 H         -0.0320634514       -0.2930843782       -2.0952052889
