  62
        -98.93330857
 C         -2.6285414519       -0.2499310972        0.5862101286
 C         -2.0722172149        0.2383466645       -0.6206496947
 C         -1.8023621421        1.6900217909       -0.6959253153
 C         -2.1144712304        2.4679765137        0.3557269900
 C         -1.9572806343        3.9585574549        0.5123290100
 C         -0.5096075962        4.3903472011        0.7799382306
 C          0.5273246755        3.7631572625       -0.1472744400
 H          1.5116281797        4.1168003629        0.1728328136
 H          0.5235787734        2.6787206908       -0.0217849940
 C          0.3711772858        4.1085200273       -1.6267355431
 H          0.3783845930        5.1946482046       -1.7458221373
 H          1.2501095271        3.7095778167       -2.1400333812
 C         -0.8706465207        3.5464481126       -2.3251103393
 H         -0.6902936950        3.6036477343       -3.4025101825
 H         -1.7505433404        4.1537725762       -2.1269650169
 C         -1.1681754800        2.0847618758       -2.0066107054
 H         -1.8276322736        1.6806477303       -2.7842867946
 H         -0.2432452377        1.4977771373       -2.0811899024
 H         -0.4586907853        5.4784846216        0.7036099695
 H         -0.2544282973        4.1098301210        1.8048587627
 H         -2.3528649916        4.4694294508       -0.3606529439
 H         -2.5688946247        4.2442193928        1.3715782647
 O         -2.6473902513        1.9515473341        1.5025664318
 C         -2.8683045718        0.5991680327        1.6663874820
 O         -3.2781618894        0.2777579728        2.8016610247
 H         -0.3635225485       -1.2393139538        1.5309732312
 C         -0.3974609016       -2.0464129098        0.8072678576
 C         -1.6292532477       -2.4767202384        0.3294530995
 C         -1.6491020418       -3.5051987195       -0.6025068342
 C         -0.4660312973       -4.0504050640       -1.0727443206
 C          0.7581958390       -3.5743814117       -0.6387217324
 C          0.7841511859       -2.5669875591        0.3129397873
 N          2.0387745331       -2.0068386960        0.7080997967
 S          2.3031935181       -0.5850799513       -0.1824808466
 O          1.4879895254        0.4909857420        0.3407600214
 O          2.1574839645       -0.8973190894       -1.5805163670
 C          4.0216811193       -0.2703946210        0.1783898240
 C          4.3862052809        0.8338233528        0.9227536360
 C          5.7283785770        1.0389596368        1.2044103632
 C          6.6757669563        0.1382798183        0.7430172872
 C          6.2934367869       -0.9675135032       -0.0024964680
 C          4.9543402121       -1.1761524941       -0.2894176279
 H          4.6091804126       -2.0153755261       -0.8697784328
 H          7.0333569028       -1.6653277422       -0.3598800251
 H          7.7188630979        0.2997929904        0.9646764373
 H          6.0275526334        1.8988923881        1.7819036651
 H          3.6141481352        1.5076274887        1.2589913574
 H          2.0154416120       -1.7275917243        1.6821262267
 H          1.6851692734       -3.9534216205       -1.0363985698
 H         -0.4998830175       -4.8373143231       -1.8109168968
 H         -2.5909123473       -3.8524691340       -0.9952896440
 C         -2.8496738404       -1.7373493335        0.8203224570
 H         -2.8975096316       -1.8455454927        1.9172310476
 C         -4.1588754133       -2.2827263508        0.2724786017
 C         -5.3485695287       -1.3889888508        0.0918279524
 C         -4.6470167623       -1.9535859193       -1.1049250174
 H         -5.1445704355       -2.7281879956       -1.6700780066
 H         -4.0358007050       -1.2980050725       -1.7044172706
 H         -6.3231397333       -1.7754200167        0.3498011564
 H         -5.2218286813       -0.3388529692        0.3127309595
 H         -4.3639928396       -3.2845420926        0.6371665422
 O         -1.8115195955       -0.4919636639       -1.6122379888
