  62
        -98.94468641
 C         -2.0143962210       -0.7520789175        0.5608406337
 C         -1.9535240287       -0.0485361541       -0.6662502028
 C         -1.9944390994        1.4140757619       -0.5640343001
 C         -2.0262501819        1.9991942564        0.6465204641
 C         -2.0200952769        3.4800060267        0.9152993121
 C         -3.4033873388        4.1399661960        0.8286699490
 C         -3.9674119928        4.2868613344       -0.5850501235
 H         -4.8291836459        4.9537282643       -0.5178969494
 H         -3.2264307656        4.7730076986       -1.2201833837
 C         -4.4131916764        2.9667501107       -1.2290787050
 H         -4.5223796031        2.2029665749       -0.4557838568
 H         -5.3941385279        3.0996121609       -1.6905820940
 C         -3.4704301905        2.4402012611       -2.3112015293
 H         -3.8620336931        1.4864269534       -2.6733243544
 H         -3.4496314941        3.1377022812       -3.1513673511
 C         -2.0306131904        2.2085506777       -1.8340110516
 H         -1.5169396300        3.1604822422       -1.6996064947
 H         -1.4985006305        1.6321419217       -2.5948563623
 H         -4.1012748750        3.5659938150        1.4424924851
 H         -3.3155509302        5.1363896892        1.2677494396
 H         -1.3333275724        3.9702745346        0.2243181282
 H         -1.6378129659        3.6075475014        1.9306687408
 O         -2.0500437741        1.2871134706        1.8062001998
 C         -2.0468176796       -0.0981807827        1.7905779164
 O         -2.0769113356       -0.6256676070        2.9232551023
 O         -1.8716656764       -0.6125308437       -1.7890425810
 C         -1.9281888986       -2.2679494345        0.5636561692
 C         -0.6359715320       -2.6839392581       -0.0985324663
 C         -0.5390344949       -3.7202595473       -1.0176634440
 C          0.6751405250       -4.0107618384       -1.6164539760
 C          1.8064622973       -3.2715643058       -1.3253800940
 C          1.7232782585       -2.2461107141       -0.3893520221
 C          0.5149732239       -1.9789487580        0.2301759780
 H          0.4628428943       -1.1796778082        0.9566103725
 N          2.8534160569       -1.4826201738       -0.0462986066
 S          2.6206385396        0.1423882272        0.3540010319
 O          2.2614038617        0.2290342420        1.7487556976
 O          1.7212856257        0.7744728326       -0.5843193119
 C          4.2799594525        0.7579413185        0.1288263118
 C          5.2046617976        0.5602627530        1.1369633673
 C          6.5037047737        1.0058486393        0.9511645682
 C          6.8549828382        1.6367801590       -0.2331467862
 C          5.9158198873        1.8297385178       -1.2350877053
 C          4.6149288906        1.3856597562       -1.0560366888
 H          3.8479923798        1.5197792364       -1.8021727803
 H          6.1903681760        2.3240722291       -2.1530080479
 H          7.8663403081        1.9833422684       -0.3750022542
 H          7.2355395556        0.8598596467        1.7291334386
 H          4.8811630831        0.0734622402        2.0422570322
 H          3.6157107458       -1.5964692490       -0.7009018868
 H          2.7450890128       -3.4821221304       -1.8149081699
 H          0.7359324185       -4.8132342246       -2.3359019069
 H         -1.4162754073       -4.2900569107       -1.2770819323
 H         -1.8872498550       -2.5703562129        1.6209749573
 C         -3.1592933243       -2.8758413513       -0.0751495900
 C         -3.6521966709       -4.2220047212        0.3611200587
 C         -4.4134048500       -2.9873191725        0.7368389505
 H         -5.3593322550       -2.7943523530        0.2536211675
 H         -4.3692314555       -2.6477073769        1.7617438446
 H         -4.0809262160       -4.8792953887       -0.3801876393
 H         -3.0987146579       -4.7294532690        1.1367072674
 H         -3.2606578840       -2.6030881999       -1.1192665340
