  62
        -98.94608350
 C          1.4143442140        1.1564882823       -0.0391578494
 C          2.3173251988        0.6829331597        0.9496122562
 C          3.0475907693       -0.5502326183        0.6312050765
 C          2.8190158411       -1.1619149775       -0.5446551134
 C          3.5218801171       -2.3992865560       -1.0213180793
 C          4.7787049045       -2.0473556002       -1.8295049208
 C          5.6901451401       -1.0299977060       -1.1431028787
 H          6.5574892987       -0.8825520118       -1.7902804195
 H          5.1708079309       -0.0710040023       -1.0797409971
 C          6.1619666393       -1.4435008745        0.2579731725
 H          6.0275220918       -2.5173869837        0.3924000648
 H          7.2313351865       -1.2385196207        0.3415373764
 C          5.4747596380       -0.6988132786        1.4041893179
 H          6.0291973900       -0.9048621846        2.3235747585
 H          5.5283239745        0.3779970019        1.2250995829
 C          4.0095816814       -1.0739855084        1.6597814677
 H          3.7107694133       -0.6193022693        2.6085466957
 H          3.9201187420       -2.1579387310        1.7544745107
 H          5.3352162894       -2.9668334812       -2.0201419156
 H          4.4676605947       -1.6335865342       -2.7916732895
 H          2.8391014188       -2.9624744625       -1.6603002906
 H          3.7899584013       -3.0122359793       -0.1628922500
 O          1.9371237306       -0.6896744398       -1.4605147898
 C          1.2127673196        0.4734133836       -1.2382646872
 O          0.4475830455        0.7635546113       -2.1792752988
 O          2.5034683421        1.2685150293        2.0482410428
 C          0.6293317636        2.4175366147        0.2915823921
 C         -0.7736809604        2.0104633760        0.6696182908
 C         -1.1255591662        1.8537003745        2.0062862344
 C         -2.3807095408        1.3889010112        2.3574361536
 C         -3.3014335530        1.0452851582        1.3832858430
 C         -2.9517848772        1.1855590556        0.0467902333
 C         -1.7086334715        1.6895094736       -0.3037414020
 H         -1.4451125823        1.7760889935       -1.3461849312
 N         -3.8495293233        0.7552962117       -0.9517027212
 S         -4.3830111480       -0.8246774799       -0.7719101236
 O         -4.5837554583       -1.3284375919       -2.1126673672
 O         -5.5493138368       -0.8351228239        0.0768240410
 C         -3.0531152976       -1.6973108466        0.0434414527
 C         -1.8039568093       -1.7097858934       -0.5453095656
 C         -0.7667413701       -2.3612805974        0.1018297507
 C         -0.9908068016       -2.9856322001        1.3188429349
 C         -2.2521344557       -2.9699838563        1.8932086517
 C         -3.2935106656       -2.3186670478        1.2522455214
 H         -4.2876328559       -2.2747656152        1.6664730405
 H         -2.4246188097       -3.4576236477        2.8390259022
 H         -0.1753942618       -3.4839235689        1.8189673993
 H          0.2148804568       -2.3674865977       -0.3451222890
 H         -1.6404134487       -1.2112546407       -1.4883620782
 H         -3.4893193353        0.8942702012       -1.8857539995
 H         -4.2754049303        0.6563032081        1.6332881598
 H         -2.6406215597        1.2790980728        3.3989905036
 H         -0.3957132691        2.0808341050        2.7697468277
 H          1.1136553911        2.8321292110        1.1852474864
 C          0.6728431378        3.4585416791       -0.8073560415
 C          0.2711921205        4.8663136636       -0.4870305688
 C          1.7093636093        4.5388916771       -0.7512891162
 H          2.1544562631        4.8737246288       -1.6763491850
 H          2.3934264267        4.5343080995        0.0847430222
 H         -0.2740212016        5.4289009899       -1.2292471966
 H         -0.0209091609        5.0815243251        0.5296800384
 H          0.4192950967        3.0727878247       -1.7862419325
