  62
        -98.93949736
 C         -2.6383973397       -1.2180525714        0.2504945607
 C         -2.5094536011       -0.1768295474       -0.7022259829
 C         -3.6904139705        0.6867178197       -0.8697200862
 C         -4.7970527888        0.4492304345       -0.1441491879
 C         -6.0437946952        1.2836493399       -0.1781975677
 C         -5.9955602246        2.3939969165        0.8809037995
 C         -4.6957962310        3.1989109107        0.8740439967
 H         -3.8707001697        2.5479498474        1.1726128217
 H         -4.7883696648        3.9713321430        1.6406457021
 C         -4.3610152277        3.8534385707       -0.4735416817
 H         -4.0400276292        4.8814318882       -0.2927750931
 H         -5.2556487297        3.8983520594       -1.0957383270
 C         -3.2367888048        3.1665657279       -1.2513066151
 H         -2.3674662270        3.0350900638       -0.6018439103
 H         -2.9371078793        3.8270873438       -2.0692722904
 C         -3.5863331326        1.8059734754       -1.8671946197
 H         -2.7723079812        1.5298775120       -2.5438865664
 H         -4.5053974875        1.8901960876       -2.4507507897
 H         -6.1098315918        1.9370088312        1.8666592722
 H         -6.8416427941        3.0639051267        0.7172530322
 H         -6.1583294918        1.7170906890       -1.1697751868
 H         -6.8977276945        0.6355425969        0.0262810151
 O         -4.8857114920       -0.5629610476        0.7565076000
 C         -3.8083508708       -1.3999076085        0.9933035856
 O         -4.0116610068       -2.2548846827        1.8785345509
 H          0.7806906561       -2.1028154882       -0.9995275352
 C          0.8514281886       -1.4640378567       -0.1328034865
 C         -0.2152526646       -1.3751665075        0.7463276624
 C         -0.1057519990       -0.5213101628        1.8404939080
 C          1.0378223425        0.2270662690        2.0421239109
 C          2.0973638344        0.1427320122        1.1557156525
 C          1.9992269563       -0.7057086556        0.0620998191
 N          3.0611099705       -0.7792071387       -0.8529002998
 S          4.6239499886       -0.9602339808       -0.2801739621
 O          5.3576396106       -1.5680387962       -1.3691247484
 O          4.6473703647       -1.6661304621        0.9803738871
 C          5.2009121436        0.7093182637       -0.0555399849
 C          5.1069716045        1.5811143280       -1.1225616097
 C          5.5637713028        2.8800648099       -0.9673704167
 C          6.1070313117        3.2822392321        0.2438087320
 C          6.1973800049        2.3940769130        1.3044900499
 C          5.7410494584        1.0934926946        1.1560538194
 H          5.7858257027        0.3703635502        1.9549070000
 H          6.6199641494        2.7086737168        2.2452209443
 H          6.4617390532        4.2940133596        0.3615624407
 H          5.4941196296        3.5739189766       -1.7896759534
 H          4.6804739324        1.2304105458       -2.0475458536
 H          2.8826346322       -1.3771954167       -1.6459971084
 H          2.9909099437        0.7271222731        1.3032057712
 H          1.1053592808        0.8861279261        2.8945792699
 H         -0.9369890093       -0.4490017780        2.5294904770
 C         -1.4902810437       -2.1618868750        0.5684672975
 H         -1.7493683811       -2.6021247487        1.5455655671
 C         -1.3481616634       -3.3264650834       -0.4002340163
 C         -2.5563626605       -3.9434015316       -1.0375408718
 C         -1.5706353045       -3.1885649535       -1.8752834964
 H         -0.9328923783       -3.7504836685       -2.5427593462
 H         -1.8494113432       -2.2177880515       -2.2528054033
 H         -3.5142865975       -3.4865862225       -0.8354062961
 H         -2.5964098411       -5.0184365787       -1.1288121717
 H         -0.5668998288       -4.0137997782       -0.0878134631
 O         -1.4752332771        0.0334802735       -1.3857836370
