  62
        -98.94133763
 C          2.4786173786        1.3191107831        0.0310717020
 C          3.1173089479        0.5637217234        1.0496810410
 C          3.8823259303       -0.6077955866        0.6126319134
 C          3.9522725084       -0.9046409672       -0.6972339039
 C          4.7098581463       -2.0519199717       -1.3082352887
 C          3.9440939981       -3.3820397544       -1.2952676015
 C          3.8221356696       -4.0488621096        0.0754809379
 H          3.4655601931       -5.0666119590       -0.0948628339
 H          4.8094791760       -4.1209744043        0.5327294360
 C          2.8562875188       -3.3448841491        1.0391611742
 H          2.1990418179       -2.6759573753        0.4771856167
 H          2.2123312890       -4.0872870481        1.5163838904
 C          3.5374723911       -2.5521018627        2.1550676112
 H          4.0805654062       -3.2365815163        2.8104944145
 H          2.7601430700       -2.0621290206        2.7469737241
 C          4.5104596687       -1.4729262665        1.6629207519
 H          5.4213084336       -1.9334119785        1.2809662370
 H          4.7678516287       -0.8322909040        2.5098365176
 H          4.4703925071       -4.0673936234       -1.9638058583
 H          2.9457793495       -3.2162650921       -1.7081443922
 H          4.9055334465       -1.7773940039       -2.3470645894
 H          5.6638940990       -2.1753770111       -0.7949114856
 O          3.3357433339       -0.1534329173       -1.6459293536
 C          2.5645706804        0.9545041917       -1.3123988846
 O          2.0369132453        1.5030735489       -2.2997315885
 O          3.0585727458        0.8671714408        2.2707359178
 C          1.6717160948        2.5238253279        0.4871895325
 C          0.2304514793        2.1300141429        0.6854950311
 C         -0.4033766211        2.2966010355        1.9104218121
 C         -1.7141148343        1.8865366124        2.0864964567
 C         -2.4163468082        1.3017667381        1.0478375592
 C         -1.7894457772        1.1273784209       -0.1791775722
 C         -0.4797390468        1.5439438620       -0.3544401969
 H          0.0045195287        1.4017021433       -1.3100832080
 N         -2.4939158901        0.5138193838       -1.2399807455
 S         -2.8629298018       -1.1113981048       -0.9858880313
 O         -1.8841390081       -1.7431599208       -0.1288797339
 O         -3.0282638273       -1.6833719332       -2.3044183344
 C         -4.4449581412       -1.0540027632       -0.1720551622
 C         -4.5791128949       -1.5469170347        1.1109604477
 C         -5.8203433793       -1.4843839344        1.7254387512
 C         -6.8981909141       -0.9327884342        1.0497213164
 C         -6.7469499220       -0.4446418355       -0.2398800942
 C         -5.5094775242       -0.5053109080       -0.8604592458
 H         -5.3479196138       -0.1432917399       -1.8620417764
 H         -7.5875664609       -0.0172199127       -0.7622105065
 H         -7.8621179311       -0.8835222098        1.5310644044
 H         -5.9397717524       -1.8639269728        2.7274789440
 H         -3.7104730334       -1.9604270482        1.5980645115
 H         -2.0068897625        0.6010756509       -2.1222864905
 H         -3.4363466136        0.9790174607        1.1786549680
 H         -2.1930784785        2.0207438986        3.0441872350
 H          0.1452600928        2.7323824800        2.7324805705
 H          2.0853395802        2.7728531141        1.4770510181
 C          1.8530780127        3.7445892095       -0.4046805751
 C          0.7470988970        4.3695040998       -1.1969116559
 C          1.2786059530        5.0647401840        0.0179158267
 H          1.8751283952        5.9550686870       -0.1097553527
 H          0.6548223805        5.0709060830        0.8991118385
 H          0.9936318033        4.7602690750       -2.1724798430
 H         -0.2366307786        3.9305712593       -1.1422524056
 H          2.8366805221        3.7675105481       -0.8625664858
