  62
        -98.94155038
 C          0.5051214108        1.6440677602        0.1873898398
 C          1.2784922906        0.7159906900        0.9206433398
 C          2.3185828899        0.0041233692        0.1663801496
 C          2.4401351495        0.2148019987       -1.1567265805
 C          3.3845352287       -0.4883361422       -2.0968513006
 C          4.8894762589       -0.2440564530       -1.8730963813
 C          5.5751443187       -1.2917457031       -0.9874597912
 H          4.9999133281       -2.2174622228       -1.0321976107
 H          6.5591797984       -1.5140088638       -1.4051557915
 C          5.7889373895       -0.8898407928        0.4748249986
 H          6.0443780992       -1.7915214727        1.0354134588
 H          6.6425885599       -0.2111874232        0.5362022080
 C          4.6063826601       -0.2005436819        1.1552008088
 H          4.8162680406       -0.1425462516        2.2249689987
 H          4.5269425106        0.8292269381        0.7993180485
 C          3.2458483297       -0.8910147111        0.9370278896
 H          3.3752951089       -1.8449365314        0.4266483698
 H          2.7649583299       -1.0719520805        1.9002741898
 H          5.0382813797        0.7565588970       -1.4681988417
 H          5.3610554585       -0.2678681236       -2.8568408314
 H          3.1790242681       -1.5611752721       -2.0577340902
 H          3.1093439685       -0.1389811024       -3.0944133406
 O          1.6561464197        1.0987057489       -1.8316550105
 C          0.6717122504        1.8282688397       -1.1854221503
 O          0.0330670906        2.5997291298       -1.9273435103
 H         -1.3993299301       -0.0714318886        0.3336784911
 C         -2.1460972298        0.6429381917        0.0196621512
 C         -1.9273227089        1.9956133817        0.2496081806
 C         -2.9041023486        2.9012916621       -0.1406224393
 C         -4.0482409291        2.4580549426       -0.7826499687
 C         -4.2327092300        1.1168909626       -1.0632323182
 C         -3.2671801003        0.2006924822       -0.6598544983
 N         -3.4126595812       -1.1710022678       -0.9116562778
 S         -2.0597801519       -2.1217124487       -1.1675977380
 O         -1.0051636817       -1.4126371996       -1.8551322386
 O         -2.5771172228       -3.2933918686       -1.8460047074
 C         -1.5431529415       -2.5971807785        0.4676143720
 C         -0.1991498114       -2.5996363992        0.7812171215
 C          0.1934567088       -3.0082735390        2.0456943214
 C         -0.7609051010       -3.4021447181        2.9701178819
 C         -2.1075331412       -3.3956467675        2.6390839625
 C         -2.5060870214       -2.9939409776        1.3746630925
 H         -3.5418197515       -2.9765637971        1.0794524229
 H         -2.8464457811       -3.7006280668        3.3624905528
 H         -0.4508374908       -3.7130733580        3.9552561919
 H          1.2399246989       -3.0077458595        2.3040938510
 H          0.5099940585       -2.2623591998        0.0402445111
 H         -4.1800157416       -1.4213395376       -1.5177772274
 H         -5.1094495704        0.7788901229       -1.5942190777
 H         -4.7978988988        3.1717547429       -1.0892277986
 H         -2.7637122679        3.9542096221        0.0407033003
 C         -0.6183954885        2.3852706611        0.8910111400
 H         -0.6128730183        2.0119218814        1.9259595201
 C         -0.3647707776        3.8770754910        0.9056103394
 C         -0.9281999167        4.7265836716        2.0046298094
 C          0.5427801532        4.4469133308        1.9530274589
 H          1.2128342235        5.2463461203        1.6744870784
 H          0.9599029030        3.7589540008        2.6737775389
 H         -1.2676079762        5.7226286218        1.7636896992
 H         -1.5103242166        4.2334698822        2.7681518298
 H         -0.3053473777        4.2978071506       -0.0919648107
 O          1.0996186209        0.4806732305        2.1464047100
