  62
        -98.93907481
 C          2.0227818950        0.8961313000        0.0519481096
 C          2.2709249360       -0.1107235695        1.0094695264
 C          2.3320960030       -1.4998212464        0.5184012163
 C          2.1327526812       -1.7299142053       -0.7928891441
 C          2.1808945071       -3.0488205391       -1.5170739055
 C          3.6176788570       -3.5531199387       -1.7391723323
 C          4.5572375959       -3.3735346261       -0.5490385182
 H          5.5653907561       -3.6372994990       -0.8790588813
 H          4.5744012276       -2.3202578837       -0.2629701627
 C          4.2295006001       -4.2260957234        0.6742071647
 H          5.0044007231       -4.0363062786        1.4210983231
 H          4.2832727955       -5.2817917104        0.3990131586
 C          2.8690319738       -3.9675558851        1.3232724347
 H          2.8625048519       -4.4868580183        2.2862554078
 H          2.0664410341       -4.4019937480        0.7332468825
 C          2.5679226167       -2.5018749793        1.6230698946
 H          1.6724581091       -2.4534155962        2.2563823668
 H          3.3777002797       -2.0871069181        2.2344675324
 H          4.0399764280       -2.9984795066       -2.5803589918
 H          3.5744726719       -4.6074441872       -2.0167298454
 H          1.7111831562       -2.8876617721       -2.4899199141
 H          1.5842196193       -3.7825553083       -0.9827130611
 O          1.8987512957       -0.7251049710       -1.6840708896
 C          1.8051972338        0.5954808450       -1.2919389068
 O          1.5493452695        1.3936907350       -2.2149315521
 O          2.4407760656        0.1370370265        2.2364271657
 C          1.8730203865        2.3355174716        0.5095225716
 C          0.4752296967        2.8082590743        0.1910933090
 C          0.1886955883        4.0444311865       -0.3728643622
 C         -1.1172992662        4.3858134738       -0.6810454376
 C         -2.1560892446        3.5037716176       -0.4494876014
 C         -1.8810415032        2.2717848070        0.1345415194
 C         -0.5784708170        1.9468093142        0.4701721515
 H         -0.3783909671        0.9860295497        0.9237240887
 N         -2.9086895921        1.3504809518        0.4057800553
 S         -2.5465407012       -0.2945530765        0.2646417235
 O         -1.9657181895       -0.7480185494        1.5049037348
 O         -1.7809177507       -0.5464988502       -0.9353640814
 C         -4.1925185697       -0.9632845293        0.1017736196
 C         -4.6799277954       -1.2653983688       -1.1556043841
 C         -5.9726120941       -1.7516203800       -1.2749472423
 C         -6.7529209504       -1.9226909765       -0.1413948867
 C         -6.2497883467       -1.6154673998        1.1142132121
 C         -4.9577241252       -1.1306224023        1.2407067919
 H         -4.5196580127       -0.8874530222        2.1945452652
 H         -6.8581649637       -1.7521781068        1.9935258130
 H         -7.7584682270       -2.3005629601       -0.2371862745
 H         -6.3643034218       -1.9942913277       -2.2495635623
 H         -4.0326221083       -1.1226815505       -2.0062924793
 H         -3.7725977184        1.5792645790       -0.0676849766
 H         -3.1694745797        3.7614285580       -0.7171830341
 H         -1.3259095366        5.3464445065       -1.1270851231
 H          0.9887079075        4.7342991112       -0.5859128383
 H          1.9898693858        2.3102683349        1.6038037131
 C          2.9592789681        3.2090297368       -0.0811630413
 C          3.4356436016        4.4253488557        0.6539545411
 C          4.3131374771        3.2146122316        0.5610006955
 H          5.1847432020        3.2534080576       -0.0748276052
 H          4.4431379868        2.6056851045        1.4438310451
 H          3.7092059081        5.2988914272        0.0817449856
 H          2.9764621048        4.6448989917        1.6059108737
 H          2.9176371484        3.2441085609       -1.1640779435
