  62
        -98.94393607
 C          1.3128918803        1.2518689091        0.1404775694
 C          1.4569570900       -0.1193154209        0.4811668294
 C          2.5931146997       -0.8266113312       -0.1226265508
 C          3.4008913498       -0.1643965114       -0.9702572509
 C          4.6252960995       -0.7415652317       -1.6184459511
 C          5.8756886897       -0.4935438620       -0.7631891813
 C          5.7039114399       -0.8774210119        0.7065162687
 H          6.6570990000       -0.6895561621        1.2056184685
 H          4.9662047601       -0.2142340417        1.1640958988
 C          5.2845367696       -2.3360887518        0.9363794688
 H          5.4862959793       -2.9248818719        0.0408901488
 H          5.8935245396       -2.7525839919        1.7415762788
 C          3.8211952996       -2.5178215014        1.3440030091
 H          3.5913918199       -1.8586960513        2.1850043091
 H          3.6913443194       -3.5466860614        1.6901904792
 C          2.7840086595       -2.2719134212        0.2408571293
 H          3.0420216292       -2.8592232913       -0.6424886007
 H          1.8144821194       -2.6114426410        0.6142634195
 H          6.7061004595       -1.0563354322       -1.1935488815
 H          6.1242004400        0.5691494679       -0.8124102214
 H          4.4816348992       -1.8096950617       -1.7684489410
 H          4.7594982495       -0.2613598818       -2.5891058912
 O          3.2134251300        1.1367183486       -1.2999729910
 C          2.1729609903        1.8809703189       -0.7601627108
 O          2.1456495205        3.0580946989       -1.1683601509
 H         -2.1375557197        0.5722160300        0.9686860900
 C         -2.1218042897        1.1842389400        0.0794893100
 C         -1.0272633996        1.9968158397       -0.1793893203
 C         -1.0277001196        2.7794158896       -1.3297374303
 C         -2.1056192097        2.7450806399       -2.1948570501
 C         -3.1945392999        1.9303384601       -1.9377116499
 C         -3.2015461999        1.1426928402       -0.7920776699
 N         -4.2946778200        0.3185755905       -0.5045724796
 S         -4.1791617402       -1.0152494795        0.4820854504
 O         -5.3669641204       -1.7828152892        0.1692289506
 O         -4.0503452299       -0.6076557195        1.8592644304
 C         -2.7395628605       -1.9388139899       -0.0265487498
 C         -2.0297355605       -2.6236121800        0.9377000001
 C         -0.9545633208       -3.4068751003        0.5531676600
 C         -0.6035244110       -3.4852608104       -0.7845906301
 C         -1.3219099410       -2.7860537003       -1.7414560900
 C         -2.4057864608       -2.0104126900       -1.3639306799
 H         -2.9797497207       -1.4628550099       -2.0938318798
 H         -1.0402765112       -2.8423366004       -2.7809294600
 H          0.2380515688       -4.0905477907       -1.0832696302
 H         -0.3927801708       -3.9445376804        1.3002229699
 H         -2.3220240803       -2.5214905499        1.9704928202
 H         -4.9839415502        0.2182074706       -1.2336418795
 H         -4.0340891800        1.9046149003       -2.6153432998
 H         -2.0964236297        3.3563745198       -3.0845943302
 H         -0.1691503595        3.3950931094       -1.5478402805
 C          0.1429366506        1.9868479694        0.7739802595
 H         -0.1463898694        1.3748854596        1.6395666696
 C          0.4786823310        3.3794891194        1.2669232294
 C         -0.4348882487        4.0277865597        2.2621113195
 C          0.9271753413        3.5663040993        2.6838172593
 H          1.6835604215        4.3084153192        2.8909804792
 H          0.9959385012        2.6872513294        3.3083626993
 H         -0.6166267584        5.0883776097        2.1808581195
 H         -1.2897710387        3.4598476999        2.5987147897
 H          0.9359542610        4.0102946892        0.5166190193
 O          0.6730768200       -0.7202838007        1.2629705996
