  62
        -98.93898587
 C          2.0487120302        0.8230231312        0.5127407695
 C          1.9392059150        0.1090037744       -0.7025428352
 C          1.9886268573       -1.3598435226       -0.6049170250
 C          2.1057266427       -1.9308605120        0.6060683247
 C          2.2047652371       -3.3977090425        0.9249223460
 C          3.6741483233       -3.8489846654        0.9899184553
 C          4.2752253918       -4.2835024736       -0.3461226928
 H          5.3413699214       -4.4549140205       -0.1816100271
 H          3.8315097858       -5.2350232142       -0.6458894613
 C          4.1093150864       -3.2833120224       -1.4927780199
 H          4.3079559905       -2.2730907511       -1.1306222906
 H          4.8631607262       -3.5114622985       -2.2485880695
 C          2.7194232842       -3.3365984049       -2.1448261165
 H          2.1962337945       -4.2288847299       -1.8020326252
 H          2.8301372145       -3.4383126839       -3.2264264206
 C          1.8422554570       -2.0997225269       -1.9061789675
 H          2.0529037399       -1.3490790796       -2.6749348068
 H          0.7863381884       -2.3698510359       -2.0207756251
 H          4.2580163640       -3.0243903036        1.4066702352
 H          3.7511171059       -4.6878754043        1.6845112609
 H          1.7539871650       -3.5286033322        1.9112047573
 H          1.6411846752       -3.9840765098        0.2052229674
 O          2.2083154400       -1.2037443086        1.7548086612
 C          2.1628942319        0.1774448526        1.7413441065
 O          2.2394095323        0.7097634645        2.8692463140
 H         -0.4276114269        1.1777084660        0.9158040300
 C         -0.5100919722        1.9897792900        0.2067711746
 C          0.6187963615        2.7274887991       -0.1267661911
 C          0.4831106208        3.7776027100       -1.0252330975
 C         -0.7467578559        4.0509243146       -1.5992831187
 C         -1.8562465515        3.2816530277       -1.3024869054
 C         -1.7345055239        2.2415008076       -0.3871127292
 N         -2.8448227194        1.4509318862       -0.0387132928
 S         -2.5870927118       -0.1785756054        0.3240795213
 O         -2.1497716025       -0.2876570546        1.6946774412
 O         -1.7426081400       -0.7972275622       -0.6726571667
 C         -4.2584332819       -0.7867173142        0.1837584694
 C         -4.6563570151       -1.4255903479       -0.9752208578
 C         -5.9683920478       -1.8595570499       -1.0850647956
 C         -6.8561001175       -1.6446286013       -0.0416445655
 C         -6.4419610490       -1.0023111084        1.1160008447
 C         -5.1313379339       -0.5675582793        1.2328604861
 H         -4.7600641111       -0.0723122703        2.1148968415
 H         -7.1340377791       -0.8389337429        1.9262178966
 H         -7.8765413345       -1.9822295927       -0.1301039973
 H         -6.2918693582       -2.3620053676       -1.9823423354
 H         -3.9284224931       -1.5753592042       -1.7565706959
 H         -3.6175091195        1.5624160893       -0.6816904061
 H         -2.8076919144        3.4800593030       -1.7719922462
 H         -0.8374234245        4.8641568037       -2.3033378662
 H          1.3429059755        4.3719958442       -1.2878613719
 C          1.9319969134        2.3363292655        0.5087929706
 H          1.9101429081        2.6437535292        1.5653188863
 C          3.1374521740        2.9634906203       -0.1603271376
 C          3.6237449957        4.3148426011        0.2672863502
 C          4.4106328553        3.0893394652        0.6193020271
 H          5.3462340440        2.9103524190        0.1112597190
 H          4.3970868969        2.7456587708        1.6437174851
 H          4.0245258116        4.9796399594       -0.4829414462
 H          3.0840836053        4.8128475555        1.0585754880
 H          3.2148106423        2.6948428201       -1.2076181398
 O          1.8138735804        0.6724266238       -1.8225072726
