  62
        -98.94478505
 C         -1.6610540606       -0.8516599357        0.2342854073
 C         -2.9263172329       -1.1369917563        0.8026609190
 C         -4.0886440777       -0.8533900141       -0.0455772103
 C         -3.9057480804       -0.3601932600       -1.2839728588
 C         -4.9913052647       -0.0270253597       -2.2714083339
 C         -5.6125482452        1.3621188563       -2.0697840429
 C         -6.5274848720        1.4968004300       -0.8517186993
 H         -7.0610689688        2.4436671989       -0.9559235498
 H         -7.2720430353        0.7002902333       -0.8682069766
 C         -5.7934500795        1.4905625425        0.4965002507
 H         -4.7320836774        1.6932502508        0.3338839725
 H         -6.1795683983        2.2962874735        1.1250688804
 C         -5.9347369878        0.1905398802        1.2883047012
 H         -5.3472213072        0.2818718689        2.2054065546
 H         -6.9796412981        0.0458253671        1.5714004713
 C         -5.4532584962       -1.0591846409        0.5398449459
 H         -6.1653350911       -1.3288439933       -0.2395811897
 H         -5.3869746880       -1.8824592510        1.2552614716
 H         -4.8076524560        2.0982044683       -2.0046303689
 H         -6.1982372104        1.5895283840       -2.9635500109
 H         -5.7728151635       -0.7861299365       -2.2280559465
 H         -4.5308293654       -0.0572711649       -3.2612472501
 O         -2.6719039794       -0.1187021462       -1.8021761853
 C         -1.5216260115       -0.3387691238       -1.0553527205
 O         -0.4646017654       -0.0550713057       -1.6502236887
 O         -3.0758868950       -1.6042132219        1.9633000733
 C         -0.4183549173       -1.0809751510        1.0764150040
 C          0.2432452181        0.2454180065        1.3603364623
 C         -0.4958401305        1.2393624889        1.9988007854
 C          0.0674755320        2.4683171712        2.2790834792
 C          1.3777051060        2.7373297726        1.9200401445
 C          2.1241151723        1.7550243228        1.2835739267
 C          1.5582264346        0.5145072237        1.0186094521
 H          2.1548032494       -0.2375388903        0.5339396697
 N          3.4675793160        1.9777538674        0.9337507940
 S          3.9619716500        1.6412875054       -0.6371747839
 O          5.2102531343        2.3639875707       -0.7736569031
 O          2.9362120790        1.9677702734       -1.5990681226
 C          4.3123845142       -0.1030610532       -0.6429782301
 C          3.6269995064       -0.9368721459       -1.5045220562
 C          3.9301735721       -2.2896712810       -1.5049240235
 C          4.9054896001       -2.7802353358       -0.6494167017
 C          5.5842814882       -1.9279065422        0.2088193057
 C          5.2889620202       -0.5742277432        0.2125002263
 H          5.7968197693        0.1234735186        0.8570389487
 H          6.3398127216       -2.3148241520        0.8733269525
 H          5.1349181477       -3.8344124467       -0.6518855486
 H          3.3988395715       -2.9536001797       -2.1685046254
 H          2.8603299608       -0.5159692267       -2.1373571890
 H          3.8222806035        2.8796300763        1.2206337079
 H          1.8176764974        3.7005823579        2.1310490465
 H         -0.5176994950        3.2280619306        2.7754011097
 H         -1.5211608972        1.0313796985        2.2732758857
 H         -0.7890491547       -1.4841522248        2.0305839118
 C          0.5010064026       -2.1003183721        0.4400203599
 C          1.4712405820       -2.8632049245        1.2902835675
 C          0.2756780299       -3.5563383754        0.7109951480
 H          0.4241321733       -4.2581622567       -0.0956111540
 H         -0.5364633563       -3.8190399495        1.3730880761
 H          2.4453756734       -3.0882180061        0.8832356749
 H          1.4716983292       -2.6567727194        2.3497000387
 H          0.8071818015       -1.8211557488       -0.5616136210
