  62
        -98.94093095
 C          1.6486420657        1.1233176330        0.1507741994
 C          2.3009341015        0.2240380227        1.0356856457
 C          3.1177142047       -0.8284523580        0.4185665970
 C          3.1890060050       -0.8999823410       -0.9226244436
 C          4.0297924753       -1.8799626669       -1.6872834765
 C          5.4236277454       -1.3055992463       -1.9775308916
 C          6.1121178188       -0.7045954307       -0.7518986376
 H          7.0980981176       -0.3590717866       -1.0703014280
 H          5.5541260728        0.1759971249       -0.4251055941
 C          6.2664435359       -1.6730202508        0.4292436849
 H          7.2789256633       -1.5795384618        0.8276599814
 H          6.1488253013       -2.7006069486        0.0833091640
 C          5.3050636329       -1.4156525159        1.5912534871
 H          5.3541276070       -0.3628654772        1.8805969241
 H          5.6421207431       -2.0057571354        2.4475436976
 C          3.8364865781       -1.7774965823        1.3356212179
 H          3.7709736632       -2.8008666418        0.9608890727
 H          3.3102772703       -1.7251605785        2.2930022458
 H          6.0452311500       -2.1010195869       -2.3927396034
 H          5.3253746942       -0.5225069742       -2.7330962606
 H          4.1180345865       -2.8006767050       -1.1138449387
 H          3.5323558183       -2.0976386229       -2.6340369547
 O          2.5291886960       -0.0428788301       -1.7400954925
 C          1.7511543820        0.9930897081       -1.2345044146
 O          1.2215586590        1.6897249119       -2.1212727830
 H         -0.8106727064        1.4361436855       -1.1889742261
 C         -1.3183183884        1.4641731185       -0.2359863976
 C         -0.6180576432        1.8627633616        0.8948798880
 C         -1.2833666725        1.8854301314        2.1146770948
 C         -2.6196206648        1.5316678097        2.1959566329
 C         -3.3174896982        1.1469875667        1.0654488723
 C         -2.6572121222        1.1106640529       -0.1566057792
 N         -3.3492202933        0.7029922706       -1.3105124618
 S         -4.2896862848       -0.6752177704       -1.1928640272
 O         -4.2999940802       -1.2500531163       -2.5194748765
 O         -5.5801270567       -0.3302732464       -0.6496373354
 C         -3.4291654033       -1.7444020504       -0.0510959885
 C         -4.0680198361       -2.1849682907        1.0899679354
 C         -3.3771452326       -2.9981223762        1.9740909739
 C         -2.0639819615       -3.3507329416        1.7051829553
 C         -1.4362430647       -2.9020056984        0.5530405165
 C         -2.1231955968       -2.0915057154       -0.3357571048
 H         -1.6587729825       -1.7294918184       -1.2399239394
 H         -0.4131703082       -3.1737593173        0.3464174312
 H         -1.5226130002       -3.9778995239        2.3956572533
 H         -3.8622062031       -3.3499951017        2.8702066261
 H         -5.0878399310       -1.8813596918        1.2619246307
 H         -2.7745582343        0.6871423745       -2.1405904063
 H         -4.3601827394        0.8766376621        1.1075250826
 H         -3.1239208128        1.5556843595        3.1495825544
 H         -0.7427328260        2.1712195196        3.0048036026
 C          0.8385779987        2.2362957019        0.7949387042
 H          1.2312218075        2.3013418495        1.8217607403
 C          1.0653924962        3.5924712496        0.1393288353
 C          0.0182038998        4.3400092574       -0.6252787531
 C          0.4382738946        4.8212382296        0.7290590420
 H          1.0283856214        5.7220376500        0.8024368454
 H         -0.2565154340        4.6787624476        1.5431263087
 H         -0.9604109212        3.8984666956       -0.7279655765
 H          0.3366961851        4.8906928647       -1.4974714328
 H          2.0825594647        3.6963569957       -0.2258871890
 O          2.2091259360        0.3068083081        2.2887979377
