  62
        -98.94487972
 C          1.8374084807        1.2469623101       -0.0291820393
 C          3.0815514206        0.9613513898        0.5827102508
 C          3.8977736005       -0.0691735600       -0.0690254793
 C          3.4451222306       -0.6739724897       -1.1824570296
 C          4.1725720906       -1.7249567995       -1.9767857198
 C          4.0150719804       -3.1499029497       -1.4282928102
 C          4.7798755902       -3.4397712901       -0.1360552402
 H          4.7591751401       -4.5212295502        0.0128290695
 H          5.8233669703       -3.1483669702       -0.2593053099
 C          4.1976578201       -2.7594977904        1.1109482999
 H          3.1742044202       -2.4364165203        0.9048064199
 H          4.1444535799       -3.4814832806        1.9290799097
 C          5.0034099302       -1.5617178206        1.6141673604
 H          5.9863611801       -1.8979213408        1.9512453004
 H          4.4813773901       -1.1337870408        2.4740152804
 C          5.1966868804       -0.4499461404        0.5748420607
 H          5.5845312404        0.4337467594        1.0876301110
 H          5.9189281305       -0.7616754402       -0.1794355693
 H          2.9520787204       -3.3521633296       -1.2753945104
 H          4.3745352105       -3.8363043895       -2.1983937603
 H          3.7541514708       -1.6971370492       -2.9852370998
 H          5.2317486907       -1.4720367696       -2.0335314796
 O          2.2433394408       -0.3719887494       -1.7415972797
 C          1.4079153608        0.5898760205       -1.1830350095
 O          0.3364026109        0.7490824008       -1.7944582096
 O          3.4919710005        1.5431049395        1.6233410611
 C          0.9609404707        2.3224595401        0.5799203109
 C         -0.4191637894        1.8272197601        0.9409330506
 C         -1.4942332593        2.7021499102        1.0629947407
 C         -2.7504059994        2.2359631702        1.4078947404
 C         -2.9731477896        0.8866192602        1.6132510700
 C         -1.9110632197        0.0027660801        1.4762336299
 C         -0.6438726596        0.4781901701        1.1717762502
 H          0.1776967604       -0.2221606600        1.0867088701
 N         -2.1372903598       -1.3766906999        1.6165271694
 S         -3.4974176798       -2.0104632696        0.8681020391
 O         -4.6136369599       -1.9400625697        1.7799507189
 O         -3.1152880799       -3.3446649395        0.4572157887
 C         -3.8341711395       -0.9822369591       -0.5531620607
 C         -5.1181525594       -0.5110787389       -0.7443838907
 C         -5.3817882192        0.2958211614       -1.8390978206
 C         -4.3591638990        0.6262444315       -2.7152417003
 C         -3.0760363791        0.1434049314       -2.5111911403
 C         -2.8096958793       -0.6744768690       -1.4253412005
 H         -1.8106318394       -1.0432557991       -1.2558088504
 H         -2.2651875290        0.4080771215       -3.1707579801
 H         -4.5601771288        1.2657689318       -3.5602130702
 H         -6.3795870191        0.6710174815       -2.0000824106
 H         -5.8781189495       -0.7782489691       -0.0279960409
 H         -1.3259541099       -1.9437225499        1.4188057794
 H         -3.9468772897        0.5025773702        1.8718217397
 H         -3.5702283394        2.9301810103        1.5076648105
 H         -1.3441549692        3.7544994102        0.8860636710
 H          1.4707543206        2.6192166297        1.5096374811
 C          0.9080827409        3.5248582903       -0.3461535787
 C          0.9308551010        4.9200595502        0.2007637017
 C          2.1357599511        4.3706173103       -0.4996351883
 H          2.3856258912        4.7471307505       -1.4801662582
 H          2.9962908609        4.1032361600        0.0965883817
 H          0.3507483412        5.6795869304       -0.3014834582
 H          0.9859865709        5.0399504699        1.2724024817
 H          0.3192874611        3.3334876806       -1.2362698989
