  62
        -98.93792419
 C          1.4232236844        1.0035104185       -0.4950844240
 C          2.4933260014        1.2200273661        0.4074716209
 C          3.4292630202        0.1043940163        0.6210513768
 C          3.2095660965       -1.0570427638       -0.0186563896
 C          4.0530146131       -2.3015450205        0.0232524703
 C          5.0664893474       -2.3138647754       -1.1337239781
 C          6.3895307790       -1.6081091945       -0.8386358120
 H          6.9632129772       -2.2057910094       -0.1272723945
 H          6.9559039239       -1.5765959046       -1.7722102796
 C          6.2633797764       -0.1840535261       -0.2909949540
 H          7.2089748717        0.3299197644       -0.4737528681
 H          5.4902849985        0.3546559827       -0.8418150756
 C          5.9571096775       -0.1399508884        1.2135040741
 H          6.1084763455       -1.1325685528        1.6373396452
 H          6.6717452251        0.5204945751        1.7090751837
 C          4.5558419334        0.3691259653        1.5822744839
 H          4.5790049368        1.4587290242        1.6858445266
 H          4.2767232273       -0.0299664520        2.5636259245
 H          5.2870133831       -3.3510064638       -1.3944708932
 H          4.5880666048       -1.8532778467       -2.0018909116
 H          4.5499888439       -2.3970547173        0.9842663671
 H          3.3677611962       -3.1430877878       -0.1014478684
 O          2.1654251806       -1.2317000100       -0.8704806613
 C          1.2404733653       -0.2285394959       -1.1249490302
 O          0.3472299087       -0.5689161289       -1.9213577829
 O          2.6665010811        2.3178733410        1.0053926791
 C          0.4595537234        2.1609250823       -0.6836008679
 C         -0.6161870835        2.1425463669        0.3752034158
 C         -1.0596779903        3.3219613441        0.9628875623
 C         -2.0474306531        3.2942401158        1.9313847705
 C         -2.6027728844        2.0948125728        2.3377074994
 C         -2.1529821245        0.9063108710        1.7698349277
 C         -1.1760258286        0.9413874922        0.7853160040
 H         -0.8262604890        0.0160608639        0.3586071609
 N         -2.6576897091       -0.3189886441        2.2109490240
 S         -2.5952760985       -1.7455902083        1.3526302286
 O         -3.3755994628       -2.6562669114        2.1646964973
 O         -1.2288508830       -2.1316685570        1.1063988428
 C         -3.4821919734       -1.4312446996       -0.1618946035
 C         -4.8573160632       -1.3187270105       -0.0643101703
 C         -5.5964528628       -1.0693592427       -1.2076159668
 C         -4.9510231816       -0.9413485121       -2.4290343581
 C         -3.5734880153       -1.0610867736       -2.5097093170
 C         -2.8242052781       -1.3043437588       -1.3671592092
 H         -1.7489238258       -1.3838683887       -1.4139363176
 H         -3.0645876724       -0.9647453208       -3.4552949736
 H         -5.5239934416       -0.7497613858       -3.3225372340
 H         -6.6688699483       -0.9786396172       -1.1454464993
 H         -5.3210683008       -1.4483070234        0.8999787108
 H         -3.4328662469       -0.2765119082        2.8535402034
 H         -3.3635428001        2.0714810335        3.1024757060
 H         -2.3844898852        4.2158889961        2.3806777813
 H         -0.6100467252        4.2603311513        0.6737011658
 H          1.0657215625        3.0654963983       -0.5115833781
 C         -0.1111278670        2.2557191059       -2.0913718838
 C         -1.5245072800        1.8974501494       -2.4265850515
 C         -1.0952356014        3.3318142686       -2.4443640754
 H         -0.9912988837        3.8292616432       -3.3966511234
 H         -1.4501925477        3.9678081450       -1.6484977605
 H         -1.7023395103        1.3933883353       -3.3633053788
 H         -2.1661296739        1.5617117353       -1.6263524898
 H          0.6343662512        2.0150006517       -2.8422579422
