  62
        -98.94069226
 C         -1.7393099916       -0.3636767139        0.4572953874
 C         -2.9226683632       -0.5160398476        1.2240935336
 C         -4.1605718700       -0.7334478276        0.4679368853
 C         -4.1223218260       -0.7655782072       -0.8763208254
 C         -5.2955241191       -0.9939883734       -1.7903856711
 C         -6.1104096463        0.2723925890       -2.0873705380
 C         -6.9690126595        0.7808218149       -0.9284970242
 H         -7.6464795903        1.5330369119       -1.3375910232
 H         -7.5824745371       -0.0357050072       -0.5463414841
 C         -6.1712412474        1.4100689558        0.2222713156
 H         -5.1632668080        1.6517699510       -0.1231421359
 H         -6.6406876684        2.3505469855        0.5197434353
 C         -6.0697089608        0.5388831499        1.4744084212
 H         -7.0634009037        0.4002793423        1.9061800580
 H         -5.4541282080        1.0643728028        2.2091226436
 C         -5.4443861883       -0.8414023440        1.2340743026
 H         -5.2163233472       -1.2874820239        2.2052929308
 H         -6.1480232436       -1.4869427195        0.7088226383
 H         -5.4257591578        1.0614148803       -2.4071589929
 H         -6.7707103451        0.0451289204       -2.9274703582
 H         -4.8878564571       -1.3689520854       -2.7315678492
 H         -5.9487381381       -1.7567178610       -1.3655715660
 O         -2.9701859306       -0.6024093153       -1.5770297015
 C         -1.7563058873       -0.3738641618       -0.9385025280
 O         -0.8031928991       -0.2044124717       -1.7203050649
 H          2.1428633838        0.0236208712        0.2358160397
 C          1.6115409222        0.9572418181        0.1654325015
 C          0.2988448430        1.0513151021        0.5963451597
 C         -0.3575646870        2.2733084513        0.4651623158
 C          0.2773925224        3.3610076237       -0.0993692348
 C          1.5930528343        3.2641493505       -0.5196104629
 C          2.2611788500        2.0556518197       -0.3812061529
 N          3.5957804929        1.9131492518       -0.7926703878
 S          4.6651399205        1.1141191615        0.2171351834
 O          4.3219714011        1.3040076243        1.6077511056
 O          5.9731186369        1.5887734256       -0.1830238800
 C          4.5266878971       -0.6060600466       -0.2181849333
 C          4.5127389400       -0.9569175014       -1.5534029942
 C          4.4523347925       -2.2994523688       -1.8908773021
 C          4.4142627151       -3.2631327103       -0.8944436278
 C          4.4312651575       -2.8943432938        0.4421413432
 C          4.4888575716       -1.5528822975        0.7862391331
 H          4.4946476598       -1.2207341721        1.8123027482
 H          4.3979185182       -3.6446969170        1.2161990246
 H          4.3669015188       -4.3075002354       -1.1602453435
 H          4.4340795774       -2.5903594766       -2.9288069889
 H          4.5429836722       -0.1820008330       -2.3009229174
 H          4.0094750256        2.7456777049       -1.1867622407
 H          2.0944966952        4.1154169830       -0.9550108397
 H         -0.2503605848        4.2971710440       -0.2054633973
 H         -1.3824106339        2.3538769787        0.8026840766
 C         -0.4448979307       -0.1091237402        1.2077732209
 H         -0.7718306128        0.1989565509        2.2160362407
 C          0.4227855135       -1.3447595503        1.3954651756
 C         -0.1763119981       -2.7183172352        1.4109255994
 C          0.7053424313       -2.2988714165        0.2750143898
 H          1.6943746727       -2.7275455534        0.2057469471
 H          0.2524985059       -2.0897174385       -0.6810168411
 H          0.2046805335       -3.4342412665        2.1234787437
 H         -1.2381538922       -2.8035516705        1.2309837082
 H          1.2314927666       -1.1661056458        2.0986472826
 O         -2.9426522246       -0.4678849900        2.4829523139
