  62
        -98.93913762
 C          2.6813163389        0.2657597630       -0.2982801804
 C          2.2362040784        1.0301823028        0.8090417696
 C          1.7278952669        2.3768657222        0.4955495594
 C          1.6937006863        2.7970017719       -0.7806096807
 C          1.1838409649        4.1338662313       -1.2355784009
 C         -0.3063229551        4.0847434398       -1.5961557006
 C         -1.1860717143        3.4340986991       -0.5280208203
 H         -2.2209273644        3.5126695679       -0.8706734802
 H         -0.9555344732        2.3674879993       -0.4703698602
 C         -1.0635566247        4.0585403994        0.8686101295
 H         -2.0655510747        4.1655434785        1.2897759497
 H         -0.6330612157        5.0585201099        0.7923639493
 C         -0.2519582337        3.2293254305        1.8661353495
 H         -0.4342286239        3.6293089405        2.8679540395
 H         -0.6096206427        2.1959629201        1.8575835098
 C          1.2669876463        3.2222853819        1.6494303293
 H          1.6283835052        4.2480921723        1.5430517890
 H          1.7264002869        2.7856545626        2.5414859693
 H         -0.6480125962        5.1058552294       -1.7785881707
 H         -0.4208431947        3.5144074795       -2.5207487105
 H          1.7512115444        4.4299815917       -2.1200280210
 H          1.3523532343        4.8646466216       -0.4464962910
 O          2.1172261569        2.0317875422       -1.8195070006
 C          2.5916865982        0.7508425427       -1.6054315905
 O          2.9289320487        0.1495772028       -2.6466547504
 O          2.2678238789        0.6383676930        2.0048038596
 C          3.1861649704       -1.1650971865       -0.1866872902
 C          2.0375577213       -2.1204207377       -0.3950336198
 C          2.1713960624       -3.2677316177       -1.1667473696
 C          1.0931513032       -4.1128072188       -1.3714575293
 C         -0.1493266670       -3.8102171799       -0.8438719492
 C         -0.2931588281       -2.6610245600       -0.0769864694
 C          0.7986791012       -1.8470540088        0.1688749603
 H          0.6676259304       -0.9701819288        0.7863473302
 N         -1.5822464684       -2.2736287412        0.3864086008
 S         -1.8976507000       -0.6235080315        0.3821528605
 O         -1.2584441708       -0.0443704111       -0.7724202297
 O         -1.6151439304       -0.0326199410        1.6740892004
 C         -3.6626915201       -0.6525665433        0.1313380308
 C         -4.1324779799       -0.9908048240       -1.1231987290
 C         -5.5003474099       -1.0510436355       -1.3340542588
 C         -6.3724403200       -0.7755680661       -0.2908778287
 C         -5.8867125901       -0.4360776454        0.9623533611
 C         -4.5186098702       -0.3744403940        1.1787398609
 H         -4.0953327103       -0.1085649334        2.1340442208
 H         -6.5664842302       -0.2199190460        1.7708637112
 H         -7.4370023900       -0.8240675673       -0.4571110585
 H         -5.8810569998       -1.3123240760       -2.3083173887
 H         -3.4153299798       -1.1891945235       -1.9030885791
 H         -1.8616140678       -2.7017790213        1.2572725709
 H         -1.0038047664       -4.4413148208       -1.0264613389
 H          1.2172083940       -5.0021442588       -1.9702292492
 H          3.1243812925       -3.4850672868       -1.6269373098
 H          3.8809373304       -1.3002256559       -1.0319227703
 C          3.9632193209       -1.4447527654        1.0914581297
 C          3.4073788119       -2.2489239858        2.2241741300
 C          4.4930282523       -2.8212500448        1.3663898099
 H          5.4844793625       -2.9161923038        1.7822011998
 H          4.2222792630       -3.6081090452        0.6792491701
 H          3.6420026317       -1.9286042254        3.2275452499
 H          2.4085416223       -2.6443428368        2.1201401502
 H          4.6040651301       -0.6126859547        1.3629256295
