  62
        -98.94591339
 C          1.2975913808        1.4212517105        0.6257433300
 C          2.3756077106        1.3146861304       -0.2876928502
 C          3.3689866207        0.2700595404        0.0097638198
 C          3.2115632709       -0.5099063594        1.0934808499
 C          4.1243097810       -1.6365667494        1.4822564299
 C          3.6783168209       -2.9713800395        0.8681980901
 C          3.3678673607       -2.8942939397       -0.6264963198
 H          3.0881693906       -3.8988118697       -0.9508418296
 H          2.5004872806       -2.2486357797       -0.7810396298
 C          4.5321607805       -2.3901589697       -1.4903016100
 H          4.6153825504       -3.0278290698       -2.3728576300
 H          5.4690783906       -2.4777200197       -0.9387700602
 C          4.3729958904       -0.9542019998       -1.9924271002
 H          5.1302546503       -0.7771246699       -2.7607904503
 H          3.3942206404       -0.8358801699       -2.4638234201
 C          4.5330242706        0.1425070303       -0.9323292304
 H          5.4611483106       -0.0130399196       -0.3784770005
 H          4.6014516405        1.1013043803       -1.4542690805
 H          2.7815801610       -3.3130817694        1.3902761703
 H          4.4662277909       -3.7070276294        1.0400912901
 H          5.1363042209       -1.3993541594        1.1590649897
 H          4.1139912311       -1.7256981192        2.5700997399
 O          2.1667046210       -0.3760053594        1.9508808601
 C          1.1947504110        0.5879127306        1.7427121601
 O          0.3023331711        0.6050931207        2.6153662702
 H         -2.2113578592        1.2573026604        0.8273738105
 C         -1.9728661193        1.3561548703       -0.2210466595
 C         -0.7835565894        1.9596705103       -0.6071422798
 C         -0.5051117196        2.0814501001       -1.9646176999
 C         -1.4020082298        1.6109221900       -2.9060962297
 C         -2.5819257197        1.0010672100       -2.5178848494
 C         -2.8676154695        0.8696514002       -1.1641583194
 N         -4.0608694294        0.2617927502       -0.7406497891
 S         -4.0401338292       -0.8043760296        0.5484549810
 O         -5.2656013492       -1.5602082597        0.4019933613
 O         -3.8876003890       -0.0846740595        1.7860975309
 C         -2.6398044092       -1.8630023096        0.2383391809
 C         -2.7669979094       -2.8197607798       -0.7510637789
 C         -1.6819200494       -3.6257348198       -1.0511804990
 C         -0.4886888393       -3.4592516697       -0.3637639392
 C         -0.3795259292       -2.4971662596        0.6269227807
 C         -1.4623340291       -1.6879549895        0.9343788408
 H         -1.3926812990       -0.9327373094        1.7018526306
 H          0.5431672209       -2.3582403995        1.1683546705
 H          0.3599420607       -4.0827895097       -0.5972214092
 H         -1.7659596795       -4.3786789799       -1.8180739289
 H         -3.7152738094       -2.9275906998       -1.2523181888
 H         -4.6384071895       -0.0890260699       -1.4911098390
 H         -3.2792604798        0.6321339999       -3.2544460893
 H         -1.1760838199        1.7133953999       -3.9566386297
 H          0.4279295303        2.5240625201       -2.2739277400
 C          0.1772236907        2.4373259004        0.4561265000
 H         -0.3648960291        2.4423904905        1.4117201201
 C          0.6835963907        3.8407449604        0.1890918598
 C         -0.2449011693        4.9962217504        0.4048337497
 C          0.9018156408        4.7700673206        1.3430024696
 H          1.7411471808        5.4483548506        1.3069504094
 H          0.6845361810        4.3982008507        2.3342381297
 H         -1.2407858893        4.7764400104        0.7603488099
 H         -0.1954177694        5.8321703603       -0.2757909504
 H          1.3842621705        3.9025124403       -0.6324176304
 O          2.5273854505        2.0471130803       -1.2991717503
