  62
        -98.94087583
 C          1.9401059899        1.3084979710        0.6575004904
 C          1.7784430802       -0.0360804389        1.0828181208
 C          2.9524737403       -0.9051061688        0.9663739008
 C          4.1140084402       -0.3921787087        0.5220733706
 C          5.4183637603       -1.1318773586        0.3951563306
 C          5.5709056902       -1.9164105388       -0.9150067993
 C          4.7033552604       -3.1707307390       -1.0246676789
 H          5.0626102904       -3.7345857091       -1.8878229288
 H          4.8550567406       -3.7940739488       -0.1429350387
 C          3.2061482703       -2.8862733193       -1.2076450388
 H          3.0687113502       -1.8483665693       -1.5197310190
 H          2.8107886303       -3.5148300895       -2.0086143586
 C          2.3516611005       -3.1451596991        0.0334020914
 H          2.3641353007       -4.2112186090        0.2710201516
 H          1.3235393205       -2.8595303793       -0.2030893785
 C          2.7882610006       -2.3614943387        1.2786138012
 H          2.0078393807       -2.4525135187        2.0382970413
 H          3.7142699207       -2.7740848585        1.6786654412
 H          5.3516078900       -1.2471619391       -1.7501907494
 H          6.6186215003       -2.2153602587       -0.9953294993
 H          6.2078350702       -0.3783750784        0.4384532203
 H          5.5375582605       -1.8085586184        1.2419531807
 O          4.2384409299        0.9067649412        0.1481029503
 C          3.1511689998        1.7790305910        0.1496212002
 O          3.4224009696        2.9037677210       -0.3070283101
 O          0.6947643103       -0.4831088590        1.5445243210
 C          0.6905839298        2.1680430008        0.7351433104
 C         -0.2388617903        1.8010156504       -0.3945785894
 C          0.2322401596        1.6846331602       -1.6986807294
 C         -0.6270734905        1.3341620298       -2.7232444493
 C         -1.9636447104        1.0822787497       -2.4657134490
 C         -2.4449565803        1.1955049199       -1.1663259890
 C         -1.5802759402        1.5605140203       -0.1421163392
 H         -1.9643579801        1.6400310905        0.8632150808
 N         -3.8029267302        0.9785228998       -0.8907991088
 S         -4.3267184499        0.1130238700        0.4413989315
 O         -5.7559905699        0.0048293198        0.2488579017
 O         -3.8950376599        0.7626954303        1.6517601813
 C         -3.5882032697       -1.5027109399        0.2837036317
 C         -4.3304464496       -2.4951868402       -0.3289475679
 C         -3.7726888594       -3.7524141301       -0.4900192477
 C         -2.4837565493       -3.9966240198       -0.0394486078
 C         -1.7534044394       -2.9897719796        0.5710727319
 C         -2.3028881496       -1.7271876596        0.7337399116
 H         -1.7336664997       -0.9394097694        1.2008228514
 H         -0.7510532594       -3.1657312994        0.9279547618
 H         -2.0465961792       -4.9751919998       -0.1614382377
 H         -4.3422000094       -4.5362743603       -0.9629202975
 H         -5.3332511597       -2.2649600504       -0.6508548779
 H         -4.3580586502        0.7407909795       -1.7001048787
 H         -2.6317484204        0.8033807894       -3.2662593789
 H         -0.2521409806        1.2490196497       -3.7321035593
 H          1.2782643196        1.8738250903       -1.8960315096
 H          0.1898870100        1.8701839010        1.6720648805
 C          0.9482673496        3.6630985009        0.8237894900
 C          0.7111081093        4.6069306306       -0.3126367302
 C         -0.2081767905        4.6176585807        0.8696729699
 H         -0.1631653706        5.4503055809        1.5551784197
 H         -1.1988166405        4.2074445805        0.7382572802
 H          1.4095236592        5.4197034107       -0.4393928504
 H          0.3394650793        4.2048257403       -1.2421038100
 H          1.7915257297        3.8917443811        1.4663998999
