  62
        -98.94489372
 C          1.9336265380       -0.4574142309        0.6585386608
 C          2.9859648171       -1.2936598887        0.2137758367
 C          4.3330827300       -0.7176842051        0.2824471021
 C          4.5024604236        0.5264905002        0.7660159660
 C          5.8164189931        1.2431560474        0.9220562443
 C          6.3036597392        1.9397368215       -0.3559505555
 C          6.8156402811        1.0043108006       -1.4520401685
 H          7.3227182049        1.6261738993       -2.1924827603
 H          7.5597973917        0.3271902514       -1.0315536729
 C          5.7181653121        0.1942175078       -2.1561003225
 H          5.8720075766        0.2350841514       -3.2367863670
 H          4.7451394758        0.6482068619       -1.9541689544
 C          5.6679462165       -1.2816770479       -1.7608607304
 H          4.8341103720       -1.7501546000       -2.2897617563
 H          6.5882267582       -1.7773946720       -2.0775247757
 C          5.4733085571       -1.5265455821       -0.2587027890
 H          5.2313254046       -2.5819133851       -0.1115878559
 H          6.3918438497       -1.2994927543        0.2818062464
 H          7.1175623129        2.6103832436       -0.0708569267
 H          5.4903965623        2.5535252880       -0.7502838733
 H          5.6655289697        2.0031557664        1.6917570068
 H          6.5770152460        0.5432715300        1.2693636572
 O          3.4659955342        1.2922165451        1.2000420140
 C          2.1573114280        0.8325457481        1.1394162035
 O          1.3093510091        1.6514389528        1.5418277606
 H         -1.7962297641        0.4682680029        1.1556467587
 C         -1.4554772176        0.5630909293        0.1389895406
 C         -0.3187083062       -0.0991072941       -0.2944973011
 C          0.0921114634        0.0742450216       -1.6149917943
 C         -0.6062494730        0.9024258224       -2.4703505717
 C         -1.7381452372        1.5679363743       -2.0312188930
 C         -2.1604644851        1.3987471608       -0.7189403696
 N         -3.2946409113        2.0776569887       -0.2457564289
 S         -4.4439902010        1.2879838528        0.6739339235
 O         -5.5914822802        2.1679641848        0.6495468681
 O         -3.9174849958        0.9620166222        1.9739247441
 C         -4.7999113003       -0.1968740013       -0.2472542085
 C         -5.6733025160       -0.1105099187       -1.3142446006
 C         -5.9097312949       -1.2397040884       -2.0807955567
 C         -5.2644412118       -2.4284727897       -1.7745838728
 C         -4.3909262954       -2.4983683589       -0.7005728142
 C         -4.1532077758       -1.3729801107        0.0730158149
 H         -3.4845626606       -1.3902821743        0.9174645537
 H         -3.8915240880       -3.4239113900       -0.4620664082
 H         -5.4450236713       -3.3067682664       -2.3740609710
 H         -6.5922656737       -1.1898466827       -2.9138269707
 H         -6.1619644080        0.8299427999       -1.5112609004
 H         -3.7347865238        2.6781422544       -0.9274750825
 H         -2.2815425154        2.2234863521       -2.6946658573
 H         -0.2705271243        1.0316962434       -3.4882090886
 H          0.9782607282       -0.4439005415       -1.9555615206
 C          0.5100129764       -0.9841525477        0.6022426983
 H          0.5882447257       -1.9754892388        0.1318715425
 C         -0.0516092588       -1.1522910503        1.9971872479
 C         -1.1038542155       -2.1852946949        2.2636134018
 C          0.2907197221       -2.3868095906        2.7741624290
 H          0.4737954081       -2.2937977383        3.8341473043
 H          0.9121600193       -3.1235583952        2.2863632065
 H         -1.8846418192       -1.9537425112        2.9733279886
 H         -1.4230477760       -2.7952574384        1.4318203902
 H         -0.1007085303       -0.2193850894        2.5480747800
 O          2.8068119886       -2.4630304609       -0.2198650520
