  62
        -98.94076339
 C         -1.3630558970       -1.4747488046       -0.3874899204
 C         -2.6080943994       -1.4265555275        0.2833491070
 C         -3.4709513956       -0.2598623321        0.0166532998
 C         -3.0268228162        0.6904116139       -0.8271127467
 C         -3.7085017316        1.9749212018       -1.2182336647
 C         -3.6425753345        3.0519363445       -0.1215386031
 C         -3.8727581464        2.5423151903        1.2989034566
 H         -3.1608792053        1.7433048950        1.5152607966
 H         -3.6580084197        3.3642613910        1.9871263659
 C         -5.2888294943        2.0511455353        1.5887593606
 H         -5.3302459920        1.7772093698        2.6461913476
 H         -5.9919474595        2.8724485661        1.4318259119
 C         -5.7569291429        0.8496946432        0.7664704831
 H         -6.0079447709        1.1456470127       -0.2484569749
 H         -6.6827946234        0.4848568622        1.2210196371
 C         -4.7876798899       -0.3284888151        0.7521098069
 H         -4.5410848661       -0.6002757737        1.7848341888
 H         -5.3092243251       -1.2022491811        0.3423414014
 H         -2.6510642496        3.5088714489       -0.1504221937
 H         -4.3752265576        3.8265873814       -0.3539313664
 H         -3.1916090233        2.3464305822       -2.1055428942
 H         -4.7380388972        1.7731078875       -1.4999590542
 O         -1.8150757202        0.6068633609       -1.4436352091
 C         -0.9551707791       -0.4577082267       -1.2509742394
 O          0.1045154545       -0.3794159643       -1.9002327423
 H          1.9872801125       -1.7636121225       -1.0043627115
 C          1.8848029398       -1.6803437832        0.0656805160
 C          0.7265635461       -2.1246281083        0.6853811524
 C          0.6121898293       -1.9802632523        2.0651236914
 C          1.6304219669       -1.4058770899        2.8035815867
 C          2.7774655716       -0.9461696349        2.1792856727
 C          2.8932809336       -1.0744897273        0.8018304316
 N          4.0396746003       -0.5663044405        0.1509030105
 S          4.2568094709        1.0928945807        0.2433542505
 O          5.3015860913        1.3972799970       -0.7080704144
 O          4.5250400081        1.4478539622        1.6146068473
 C          2.7175779237        1.8236759236       -0.2831590893
 C          1.6870132899        1.9573075656        0.6251876800
 C          0.4834182451        2.4908804170        0.1949718608
 C          0.3329484727        2.8811060944       -1.1258574291
 C          1.3756677920        2.7361365642       -2.0259156295
 C          2.5787952398        2.1967365760       -1.6041806765
 H          3.4150364783        2.0664012344       -2.2725191589
 H          1.2491985392        3.0302486787       -3.0554557905
 H         -0.6072204850        3.2898969305       -1.4609829401
 H         -0.3360451378        2.5900814325        0.8904117853
 H          1.8398505196        1.6478331043        1.6465888740
 H          4.0851939009       -0.8410751105       -0.8211020321
 H          3.5696207264       -0.4680130976        2.7323181512
 H          1.5293344801       -1.3076270471        3.8739866057
 H         -0.2952209170       -2.3115472259        2.5505132800
 C         -0.4437883526       -2.6522057526       -0.1048347509
 H         -1.0214357923       -3.3261503330        0.5413190344
 C         -0.0516228311       -3.3978497732       -1.3625628579
 C          0.5878351473       -4.7479146569       -1.2414623805
 C         -0.8147647100       -4.6259896493       -1.7544640727
 H         -0.9986313466       -4.8048641584       -2.8032940307
 H         -1.6235628019       -4.9393423190       -1.1107649695
 H          0.7317286468       -5.1426095753       -0.2470181832
 H          1.3691777324       -5.0143203040       -1.9367800944
 H          0.2810521662       -2.7496467349       -2.1637393846
 O         -2.9918828888       -2.3245051916        1.0808258100
