  62
        -98.93841744
 C          2.1012079481        0.8450538534       -0.4795708204
 C          3.1317644583        1.1444900370        0.4401457000
 C          4.4190910061        0.4481890422        0.2527561540
 C          4.5397281762       -0.4218965586       -0.7673420126
 C          5.7262124665       -1.2781695530       -1.1208661756
 C          5.8748385090       -2.4930474541       -0.1897775638
 C          5.6640425010       -2.1982516983        1.2932781147
 H          4.6727083501       -1.7635504833        1.4345435345
 H          5.6770006486       -3.1527727619        1.8261760748
 C          6.7133233539       -1.2923501630        1.9333114791
 H          6.4813454340       -1.2301916106        2.9996540411
 H          7.6962970502       -1.7584949019        1.8346146708
 C          6.7948888543        0.1317819633        1.3805520152
 H          7.3105838739        0.1507175008        0.4242515284
 H          7.4073716934        0.7150048060        2.0745310091
 C          5.4551025537        0.8534880473        1.2736279575
 H          5.6476366126        1.9179647703        1.0920982446
 H          4.9497162954        0.8145687685        2.2452726035
 H          6.8656776646       -2.9247301531       -0.3406060359
 H          5.1330507623       -3.2381054541       -0.4880029630
 H          5.5613715149       -1.6390287393       -2.1385037914
 H          6.6314559685       -0.6783491961       -1.1250656242
 O          3.5165353068       -0.6793941210       -1.6314423831
 C          2.2817067986       -0.0676885437       -1.5176079111
 O          1.4553585347       -0.4092899134       -2.3853140576
 O          2.9852322877        1.9575530151        1.3926706292
 C          0.7527698949        1.5236862495       -0.3123165620
 C         -0.2872837021        0.4728110859       -0.0147550042
 C         -0.1722807497       -0.2599378378        1.1644959815
 C         -1.0772227505       -1.2576254378        1.4699930587
 C         -2.1201260076       -1.5470260027        0.6068197438
 C         -2.2489496166       -0.8169055502       -0.5664223552
 C         -1.3429621344        0.1935807740       -0.8669905455
 H         -1.4536828194        0.7437223068       -1.7878472916
 N         -3.3096012215       -1.0988375750       -1.4409922893
 S         -4.8309628983       -1.3505190342       -0.7972156415
 O         -4.9357246373       -2.6985124572       -0.2964123330
 O         -5.7518611773       -0.9971538936       -1.8546319186
 C         -4.9585324268       -0.1927460079        0.5551272467
 C         -5.1436651960       -0.6528142844        1.8426888277
 C         -5.2081608134        0.2641914550        2.8797983103
 C         -5.0835062814        1.6183934892        2.6125440908
 C         -4.9016983688        2.0655410142        1.3125787736
 C         -4.8377304801        1.1535413760        0.2720479640
 H         -4.7032140895        1.4695997132       -0.7498186482
 H         -4.8069513644        3.1197054957        1.1071476903
 H         -5.1289387591        2.3308721295        3.4210503619
 H         -5.3517698737       -0.0805983408        3.8911377977
 H         -5.2335742735       -1.7143404137        2.0065496092
 H         -3.3377453101       -0.5161416253       -2.2639394110
 H         -2.8240280693       -2.3356220052        0.8175635794
 H         -0.9699258731       -1.8202097655        2.3849445506
 H          0.6469538834       -0.0387641118        1.8347911865
 H          0.8585205107        2.1614093426        0.5767238218
 C          0.4306514476        2.3984154690       -1.5044480614
 C         -0.5721153931        3.5039098163       -1.3663290712
 C          0.8850242622        3.8259958617       -1.5027283887
 H          1.2358554647        4.2553369693       -2.4292697897
 H          1.4169295535        4.1776539134       -0.6309341219
 H         -1.2236279459        3.7186890516       -2.1999468405
 H         -1.0309502797        3.6400688140       -0.3990189107
 H          0.4799119669        1.8637537715       -2.4462960790
