  62
        -98.93914159
 C         -2.2493174967       -0.0903788343        0.2729084637
 C         -3.2845951788       -0.7194155356       -0.4618504264
 C         -4.4456032921        0.1233379894       -0.7806466090
 C         -4.4624559576        1.4173993488       -0.4168672105
 C         -5.5605498481        2.4064555170       -0.6993791990
 C         -6.7150924809        2.3637427631        0.3112029022
 C         -7.6292653137        1.1425745286        0.2037577797
 H         -8.5099386944        1.3472944635        0.8157929865
 H         -7.9674353795        1.0331114628       -0.8270539446
 C         -6.9912039118       -0.1696554051        0.6806001846
 H         -7.6939088349       -0.7036438416        1.3242477492
 H         -6.1094288781        0.0528595297        1.2860247637
 C         -6.5906816805       -1.1246651691       -0.4438512184
 H         -6.1156917134       -2.0010087894        0.0042431356
 H         -7.4840352426       -1.4601107328       -0.9751993628
 C         -5.6128571637       -0.5249695459       -1.4626683081
 H         -5.2259195919       -1.3350741688       -2.0852745620
 H         -6.1271971272        0.1928596472       -2.1008954197
 H         -6.2982264530        2.4195874422        1.3195083446
 H         -7.3200814164        3.2593535409        0.1519271281
 H         -5.9493689577        2.2449308810       -1.7051448332
 H         -5.1030552044        3.3972694140       -0.6576855359
 O         -3.4335023061        1.9962967561        0.2582612994
 C         -2.3266373326        1.2579353798        0.6373798544
 O         -1.4844601699        1.9083155949        1.2907682621
 O         -3.2674740702       -1.9184810846       -0.8458301856
 C         -0.9889614867       -0.8098959241        0.7253545977
 C          0.0306866945       -0.9146390639       -0.3840208653
 C         -0.2162331506       -1.6550512007       -1.5356786386
 C          0.7519171778       -1.7636961940       -2.5167409528
 C          1.9865718802       -1.1584281415       -2.3617380191
 C          2.2390110418       -0.4087541695       -1.2189845983
 C          1.2582755568       -0.2840458777       -0.2449192688
 H          1.4650087255        0.3118801531        0.6327143430
 N          3.4731121934        0.2357663372       -1.0398885495
 S          4.0990940824        0.3411799575        0.5243331130
 O          3.8739834212       -0.8994161373        1.2313369451
 O          3.5897723739        1.5354066638        1.1511232146
 C          5.8354559190        0.5401069047        0.1692554315
 C          6.3210825144        1.8038958604       -0.1087007164
 C          7.6646271973        1.9525823789       -0.4144732437
 C          8.4951816280        0.8419117490       -0.4381476335
 C          7.9938826188       -0.4197673376       -0.1549792900
 C          6.6510033745       -0.5758280645        0.1506008030
 H          6.2191674892       -1.5350893620        0.3868751032
 H          8.6426688521       -1.2806386476       -0.1704027190
 H          9.5404911875        0.9610624905       -0.6755201091
 H          8.0583715229        2.9323916117       -0.6315889378
 H          5.6399550464        2.6380212421       -0.0681009692
 H          4.1717180869       -0.0523938601       -1.7111708933
 H          2.7467407982       -1.2579719033       -3.1217351447
 H          0.5479309632       -2.3391830254       -3.4071247579
 H         -1.1747284080       -2.1361210857       -1.6538515061
 H         -0.5517527842       -0.1759430762        1.5097099326
 C         -1.2577740077       -2.1812215819        1.3174484785
 C         -0.1882722434       -2.8255765016        2.1451686328
 C         -1.4401600986       -2.3206347782        2.7969222270
 H         -2.1576583640       -3.0399516426        3.1624878942
 H         -1.3765475367       -1.4232824075        3.3959386805
 H         -0.0468148067       -3.8923774216        2.0630283999
 H          0.7282448618       -2.2730152521        2.2968963778
 H         -1.8537028308       -2.8177255350        0.6771032327
