  62
        -98.94488450
 C         -1.9164040721       -0.9960758171       -0.2671541093
 C         -3.0417656565       -1.2037761593        0.5713175230
 C         -4.3143833506       -0.6570695319        0.0906842998
 C         -4.3585436385       -0.0081339590       -1.0869772882
 C         -5.5834926062        0.5913650311       -1.7224696859
 C         -5.9252117263        1.9985471206       -1.2136025196
 C         -6.4946682353        2.0569812604        0.2044742730
 H         -6.8908010263        3.0641325055        0.3489131725
 H         -7.3319585185        1.3633129948        0.2874964480
 C         -5.4709701789        1.7665308083        1.3109761319
 H         -4.4601897043        1.8661177498        0.9080314816
 H         -5.5719725363        2.5104025450        2.1045414845
 C         -5.6121981731        0.3896360104        1.9601174828
 H         -6.5689949127        0.3279206734        2.4833258134
 H         -4.8156278025        0.2770917874        2.6998748830
 C         -5.5158994787       -0.7848502220        0.9775845960
 H         -5.4071640760       -1.7063559807        1.5546149428
 H         -6.4248269590       -0.8511810242        0.3801275019
 H         -5.0277021276        2.6189281818       -1.2717055740
 H         -6.6654378648        2.4210522537       -1.8970595426
 H         -5.3795094612        0.6532465135       -2.7936342539
 H         -6.4370770323       -0.0695017804       -1.5689609369
 O         -3.2594044856        0.1646520461       -1.8663614027
 C         -2.0117287754       -0.2997218146       -1.4719846194
 O         -1.1009836422       -0.0378905527       -2.2815897683
 H          1.2384387154       -0.0847180217       -1.2544117492
 C          1.1526142599        0.2732433269       -0.2405508268
 C          0.2758971944       -0.3479239450        0.6363303521
 C          0.1617965022        0.1534575758        1.9295557449
 C          0.9066238440        1.2463939792        2.3338624446
 C          1.7761488305        1.8677072833        1.4540420177
 C          1.8876710418        1.3806695299        0.1590261038
 N          2.7757993957        2.0096415798       -0.7425425152
 S          4.4003731645        1.8740142034       -0.3556636298
 O          4.6682312833        2.6610373066        0.8209894036
 O          5.1242110299        2.2412629627       -1.5513351386
 C          4.6226294759        0.1411651301        0.0011846837
 C          4.9015294576       -0.7184477102       -1.0424571977
 C          4.9893065616       -2.0770759549       -0.7865225333
 C          4.7830776792       -2.5512444321        0.4999561891
 C          4.5003278417       -1.6749494623        1.5361362226
 C          4.4180526847       -0.3142044196        1.2881724243
 H          4.2050621143        0.3990461151        2.0672664808
 H          4.3401526066       -2.0462637940        2.5355509556
 H          4.8427783008       -3.6102897788        0.6956240844
 H          5.2132074201       -2.7607856645       -1.5898162298
 H          5.0569044057       -0.3079584476       -2.0275006113
 H          2.6307134560        1.7143935126       -1.6981603971
 H          2.3734772535        2.7149061524        1.7504362900
 H          0.8088545658        1.6204802857        3.3417780232
 H         -0.5278144460       -0.3213141824        2.6133153194
 C         -0.5730212434       -1.5205622077        0.2132448055
 H         -0.8014259220       -2.1129471373        1.1092470612
 C          0.1073683340       -2.4144842120       -0.8027983720
 C          1.3066271385       -3.2085693514       -0.3811024596
 C          0.0075271984       -3.9020819399       -0.6579031193
 H         -0.0789447019       -4.5004091663       -1.5525052315
 H         -0.5562443733       -4.2865587302        0.1792352752
 H          2.1174367589       -3.3299675322       -1.0825460009
 H          1.6261683179       -3.1154275806        0.6456358693
 H          0.0924768186       -2.0150093826       -1.8091173982
 O         -2.9840918297       -1.8230330020        1.6662297601
