  62
        -98.94261201
 C          1.4322952396        1.0890817513        0.0109056214
 C          2.7744228095        1.5465701015        0.0235791426
 C          3.7766622793        0.6045890612        0.5397997723
 C          3.3729810593       -0.5876980893        1.0140727811
 C          4.2888959292       -1.6672389995        1.5120186107
 C          4.6843919899       -2.6245186485        0.3789465001
 C          5.1742304405       -1.9175219674       -0.8849228190
 H          5.4544967110       -2.6912150968       -1.6030369895
 H          4.3459124607       -1.3571028372       -1.3246347790
 C          6.3632653103       -0.9720925374       -0.6636565076
 H          6.8514025398       -1.2054827381        0.2832958925
 H          7.0962438307       -1.1397338466       -1.4557159773
 C          6.0064227200        0.5153423126       -0.6956786165
 H          5.4370952905        0.7362116332       -1.6024596767
 H          6.9367228100        1.0872837928       -0.7481766955
 C          5.2152118793        1.0378485314        0.5101761035
 H          5.7232613488        0.7543975407        1.4342567235
 H          5.1981385992        2.1300639915        0.4486205944
 H          3.8134884202       -3.2291973284        0.1162617891
 H          5.4639267898       -3.2933998887        0.7481817100
 H          3.7669776088       -2.2309584803        2.2868853799
 H          5.1780094388       -1.2120918398        1.9441132316
 O          2.0710598193       -0.9636641695        1.0530417701
 C          1.0636815895       -0.1450862092        0.5507884902
 O         -0.0749585705       -0.6299523095        0.6588794792
 O          3.1182631495        2.6913172519       -0.3766202863
 C          0.3775663397        2.0181622416       -0.5632319984
 C         -0.8303683608        2.0579702407        0.3361312010
 C         -0.7100530915        2.6373241596        1.5965890415
 C         -1.7831507720        2.6661083187        2.4656324510
 C         -2.9967157717        2.1116663889        2.0986989098
 C         -3.1273953210        1.5336848899        0.8416835493
 C         -2.0513394005        1.5178437208       -0.0344475501
 H         -2.1770997599        1.0584602016       -0.9997414906
 N         -4.3510664607        0.9822427700        0.4405797181
 S         -4.4439009299       -0.2808285691       -0.6422333030
 O         -4.1439244292        0.1839566621       -1.9744124424
 O         -5.7852409699       -0.7962069794       -0.4535004741
 C         -3.2672456800       -1.5200489993       -0.1356292933
 C         -2.4511250493       -2.0979766784       -1.0838301534
 C         -1.5753266594       -3.0978258086       -0.6962533537
 C         -1.5301776701       -3.4989114697        0.6281742360
 C         -2.3580103307       -2.9090345906        1.5692936360
 C         -3.2382857406       -1.9118297004        1.1866694663
 H         -3.8931226811       -1.4376212611        1.8999410164
 H         -2.3124045512       -3.2174813615        2.6016632258
 H         -0.8377846101       -4.2690594798        0.9307440757
 H         -0.9233069489       -3.5511089579       -1.4267518438
 H         -2.5080287088       -1.7479594275       -2.1023734631
 H         -5.0544589110        0.9173494993        1.1607181877
 H         -3.8353084121        2.1254320982        2.7780999894
 H         -1.6742323726        3.1169420979        3.4405965214
 H          0.2429230382        3.0568796895        1.8894794924
 H          0.8491161496        3.0150776417       -0.5488816273
 C          0.0255109506        1.7234654828       -2.0138414588
 C          1.0525704712        1.1884254637       -2.9647910387
 C         -0.0973864389        0.3268069532       -2.5418015701
 H         -0.8801246985        0.1232323037       -3.2587043407
 H          0.0886555708       -0.4854165374       -1.8561418606
 H          1.0686007917        1.5717048746       -3.9739790784
 H          2.0317028610        0.9645151035       -2.5669627183
 H         -0.6689571193        2.4544505530       -2.4179783286
