  62
        -98.94626361
 C         -2.3872382144        0.5295868700        0.0119733685
 C         -1.3927880249        0.7264622435       -0.9736217913
 C         -0.7015380893        2.0211585269       -0.9490867010
 C         -1.0400729666        2.9258296285       -0.0128568699
 C         -0.3340780189        4.2293545817        0.2283492331
 C          0.9708107071        3.9667653969        1.0091644321
 C          2.2482068487        4.2979849570        0.2365598679
 H          2.3781556477        5.3824887856        0.2111903170
 H          3.0827971479        3.8760831846        0.8012460845
 C          2.3091958708        3.7810002213       -1.2041083776
 H          3.3526306864        3.8420212264       -1.5202952150
 H          1.7449108334        4.4493599699       -1.8566777028
 C          1.8121236935        2.3453781503       -1.4181137779
 H          1.8760105674        1.7752295117       -0.4901473360
 H          2.4723053866        1.8567738601       -2.1382988071
 C          0.3773174576        2.2453985177       -1.9715634752
 H          0.1462422289        3.1368708887       -2.5611054789
 H          0.3187529566        1.3811794183       -2.6393082911
 H          0.9675245243        4.5514562156        1.9310232924
 H          0.9897318496        2.9152305252        1.3071992766
 H         -0.1230302195        4.7190122246       -0.7198183231
 H         -1.0037738021        4.8635080795        0.8100373053
 O         -2.0271275832        2.7158370928        0.8968236101
 C         -2.7009401037        1.5066012895        0.9534839122
 O         -3.5464543338        1.4267719561        1.8696574310
 O         -1.0849497766       -0.1501676788       -1.8252482284
 C         -3.0617868943       -0.8259314300        0.1279241969
 C         -1.9988819695       -1.8889914250        0.2800187678
 C         -2.0392268809       -3.1169773179       -0.3681089616
 C         -1.0048467852       -4.0246896163       -0.2147359114
 C          0.0981826835       -3.7200765366        0.5619965873
 C          0.1412577409       -2.4989525150        1.2251637034
 C         -0.9178256612       -1.6144595587        1.1084121950
 H         -0.8728023074       -0.6726354569        1.6358867233
 N          1.2475672533       -2.1260302697        2.0162639390
 S          2.1023909449       -0.7530506469        1.5756467215
 O          3.1775964923       -0.6603930076        2.5404711604
 O          1.2183038397        0.3811996049        1.5016029045
 C          2.7894990853       -1.1395858354       -0.0252557869
 C          4.1291055096       -1.4699494944       -0.1032862582
 C          4.6651300065       -1.8206100280       -1.3314091162
 C          3.8534261248       -1.8437665609       -2.4557700050
 C          2.5105771038       -1.5149549517       -2.3586363077
 C          1.9668015625       -1.1590452020       -1.1335357763
 H          0.9253561153       -0.8922822462       -1.0458988297
 H          1.8705147935       -1.5298043884       -3.2263392372
 H          4.2684871745       -2.1184802223       -3.4127111211
 H          5.7100777476       -2.0746501687       -1.4075848535
 H          4.7202584312       -1.4351848586        0.7976039251
 H          1.9011297898       -2.8790567778        2.1832063604
 H          0.9188249140       -4.4153772378        0.6552125474
 H         -1.0486862294       -4.9741205135       -0.7260787488
 H         -2.8765776510       -3.3595209577       -1.0018309366
 H         -3.6595137641       -0.7942671659        1.0509506038
 C         -3.9861928613       -1.0646237233       -1.0480872507
 C         -5.2182300322       -1.9022854393       -0.8865090312
 C         -5.3371274706       -0.4171752799       -1.0460240647
 H         -5.7227550076       -0.0246650898       -1.9748709722
 H         -5.5992475272        0.1743270541       -0.1805168403
 H         -5.5275574269       -2.5291947697       -1.7091865350
 H         -5.4142613315       -2.3223270822        0.0885072423
 H         -3.4537992635       -1.1088409023       -1.9911348822
