  62
        -98.93750394
 C         -1.9383241023       -0.8553358497        0.4952556056
 C         -2.1728466123       -0.2308162091       -0.7508707009
 C         -2.5457014136        1.1938061677       -0.7056323013
 C         -2.5889466271        1.8216496377        0.4820513054
 C         -2.9864876455        3.2476404236        0.7465643091
 C         -4.4818185698        3.3386558120        1.0959502492
 C         -5.4171210187        3.4701637767       -0.1055845051
 H         -5.3058361491        4.4665978834       -0.5380184787
 H         -6.4397603131        3.3873785180        0.2693354943
 C         -5.2135684612        2.4317134171       -1.2120221043
 H         -6.1323614443        2.3854202339       -1.7997382250
 H         -5.0627367905        1.4458715896       -0.7685911057
 C         -4.0431179215        2.7678912666       -2.1482442945
 H         -3.7359464322        3.7993414545       -1.9762034324
 H         -4.3832818070        2.7141478465       -3.1843493599
 C         -2.8217527342        1.8417236355       -2.0349999036
 H         -1.9252206057        2.3888341426       -2.3455864979
 H         -2.9320480150        1.0041818335       -2.7310817776
 H         -4.6379907668        4.2041001104        1.7430957024
 H         -4.7439769356        2.4478028203        1.6725696439
 H         -2.7398721996        3.8781478266       -0.1025401715
 H         -2.4038284344        3.5770945947        1.6095888059
 O         -2.3166149742        1.1905028714        1.6584985974
 C         -1.9871463295       -0.1511447719        1.6962824811
 O         -1.7681821567       -0.5983162749        2.8426360742
 O         -2.0864993821       -0.8348248711       -1.8530103959
 C         -1.5515186127       -2.3204485295        0.5469535713
 C         -0.2774529906       -2.5629770470       -0.2278376592
 C         -0.0509622013       -3.7208808076       -0.9615042214
 C          1.1507661809       -3.9060780959       -1.6229424702
 C          2.1474441753       -2.9503669670       -1.5656435698
 C          1.9280050921       -1.7839642217       -0.8393562637
 C          0.7279667514       -1.6063730093       -0.1713943405
 H          0.5730255132       -0.7021392415        0.4005621201
 N          2.9027047900       -0.7737435052       -0.8039211075
 S          2.9347642611        0.3302047159        0.4655125489
 O          2.9045842619       -0.3617035531        1.7356988027
 O          1.9133537669        1.3252593372        0.2485017633
 C          4.5453055447        1.0496603455        0.2033044106
 C          5.6294676525        0.5515725254        0.9012992108
 C          6.8837601456        1.0935990896        0.6685878705
 C          7.0326141924        2.1172462585       -0.2550811232
 C          5.9352544351        2.6076498647       -0.9473186079
 C          4.6782710248        2.0704077412       -0.7188622093
 H          3.7948800585        2.4230010415       -1.2255294784
 H          6.0538407388        3.4054405545       -1.6625952158
 H          8.0094797909        2.5375480321       -0.4345427695
 H          7.7377263219        0.7165588998        1.2077520661
 H          5.4632164882       -0.2375396296        1.6169050154
 H          3.8259084381       -1.0949773155       -1.0595141347
 H          3.0826219535       -3.0957056161       -2.0840687197
 H          1.3141264053       -4.8105686931       -2.1889414453
 H         -0.8161016384       -4.4778943250       -1.0153243764
 H         -1.3448565636       -2.5412348058        1.6059264619
 C         -2.7073962775       -3.1849244431        0.0838605434
 C         -2.9292197452       -4.5419216614        0.6792405072
 C         -3.8550550961       -3.4141684986        1.0194060090
 H         -4.8562808826       -3.4249398843        0.6157757913
 H         -3.7850320512       -2.9711858394        2.0027721563
 H         -3.2996611405       -5.3303586090        0.0415344167
 H         -2.2386489331       -4.8737504055        1.4399892562
 H         -2.9373974032       -3.0387041415       -0.9651955056
