  62
        -98.93718889
 C         -0.6969599558       -1.3654948338        0.3971037992
 C         -1.5362303213       -0.5568881288        1.1993082972
 C         -2.4366383591        0.3736306615        0.4966728972
 C         -2.3353131513        0.4842485961       -0.8390044466
 C         -3.1392938276        1.3620952118       -1.7598166669
 C         -4.3520085191        0.6048820277       -2.3270199697
 C         -5.6089403470        0.6622688117       -1.4596539963
 H         -6.0233057344        1.6719201940       -1.4948937891
 H         -6.3441303606       -0.0094355129       -1.9086183899
 C         -5.4064230864        0.2646733982        0.0043855753
 H         -6.3785804678       -0.0160626127        0.4138433840
 H         -4.7668933663       -0.6183626073        0.0574350378
 C         -4.8098273799        1.3926235890        0.8594768064
 H         -4.8267845971        2.3217515296        0.2908153687
 H         -5.4404831573        1.5547611782        1.7360658341
 C         -3.3930936383        1.1269505231        1.3815027986
 H         -2.9337053466        2.0769194503        1.6704127921
 H         -3.4496709610        0.5289062373        2.2967226957
 H         -4.0552274184       -0.4361084201       -2.4799122329
 H         -4.5967553832        1.0200407832       -3.3069357247
 H         -3.4473225446        2.2743408448       -1.2575923356
 H         -2.4765085023        1.6246974090       -2.5878651364
 O         -1.4628695962       -0.2650697235       -1.5707635701
 C         -0.6499615973       -1.2259183716       -0.9912130210
 O          0.0419602939       -1.8663751455       -1.8038202261
 H          1.5460290627       -0.0765399750        0.7111626576
 C          2.1603285871       -0.9287575746        0.4552884767
 C          1.6320625013       -2.2085400193        0.5796586007
 C          2.4352273663       -3.2902064996        0.2431792329
 C          3.7266393236       -3.0888992425       -0.2129440938
 C          4.2383799467       -1.8128110171       -0.3550079160
 C          3.4419009186       -0.7227984011       -0.0247241799
 N          3.9182048616        0.5961552826       -0.1450779583
 S          2.9472539803        1.7059259193       -0.9435503976
 O          2.2100846023        1.0988045406       -2.0264539338
 O          3.8565850661        2.7701853547       -1.3203461861
 C          1.8298912841        2.3409625501        0.2861380024
 C          0.5302618979        2.6127159971       -0.0903343706
 C         -0.3304773032        3.1839731567        0.8326270015
 C          0.1179141310        3.4593707013        2.1146080510
 C          1.4251787500        3.1740827449        2.4792030555
 C          2.2964018905        2.6187117150        1.5558958636
 H          3.3198542250        2.3884078918        1.8010679880
 H          1.7677101543        3.3859819253        3.4791957701
 H         -0.5561158719        3.8970777460        2.8339724041
 H         -1.3437480416        3.4101441400        0.5423891519
 H          0.2175038200        2.3602785543       -1.0917033092
 H          4.8721403420        0.6644986352       -0.4722519078
 H          5.2400159911       -1.6565549176       -0.7264278490
 H          4.3387009077       -3.9388248155       -0.4744306264
 H          2.0476681498       -4.2926367040        0.3190842726
 C          0.2249253729       -2.3383928615        1.1078149575
 H          0.2313046824       -1.9834653469        2.1530401456
 C         -0.2802532932       -3.7739094081        1.1480895633
 C         -1.7257976176       -4.0977822594        0.9208520057
 C         -0.6993429324       -4.5055486281       -0.0907753877
 H         -0.4538469814       -5.5541214688       -0.1767582577
 H         -0.6523907564       -3.9662774938       -1.0238636682
 H         -2.1816676872       -4.8619888795        1.5324592020
 H         -2.3902178711       -3.2827273591        0.6726789467
 H          0.2214021292       -4.3606023817        1.9114377332
 O         -1.5398088992       -0.6122449318        2.4584853813
