  62
        -98.94453195
 C         -1.7206249257       -0.7751505523        0.1402151940
 C         -2.9428843933       -1.1653558122        0.7390756212
 C         -4.1547265246       -0.8858640492       -0.0385279629
 C         -4.0517872722       -0.3056836815       -1.2481661032
 C         -5.1946279207        0.0272872576       -2.1688037384
 C         -5.8782862917        1.3656250549       -1.8565653284
 C         -6.7441467897        1.3761941206       -0.5960648248
 H         -7.3295307305        2.2975795433       -0.6178466076
 H         -7.4469441340        0.5432459434       -0.6324850672
 C         -5.9510877933        1.3266378291        0.7173672856
 H         -4.9095126298        1.5940578294        0.5235841220
 H         -6.3482241573        2.0713389612        1.4108975590
 C         -5.9916883858       -0.0246470573        1.4310599665
 H         -5.3703889791        0.0423098081        2.3277748950
 H         -7.0146289792       -0.2417127924        1.7462373552
 C         -5.4804201569       -1.1995536551        0.5870904066
 H         -6.2110921816       -1.4589987880       -0.1785036979
 H         -5.3414364732       -2.0600351229        1.2460447280
 H         -5.1109688810        2.1395687073       -1.7787251034
 H         -6.5138187882        1.6134043142       -2.7099170423
 H         -5.9328987905       -0.7746682780       -2.1423064431
 H         -4.7757902817        0.0819319116       -3.1759611840
 O         -2.8560723228        0.0372282769       -1.7979375447
 C         -1.6647544603       -0.1691625982       -1.1146321981
 O         -0.6505404454        0.2146862496       -1.7276112200
 O         -3.0163592269       -1.7185423724        1.8688176600
 C         -0.4288232511       -1.0097456026        0.9021713071
 C          0.2405425127        0.3086438252        1.2024216602
 C         -0.4912673443        1.2948083477        1.8607396374
 C          0.0814671013        2.5124020269        2.1695393201
 C          1.3965623392        2.7753471988        1.8256663099
 C          2.1377814482        1.7991265479        1.1730947235
 C          1.5603347834        0.5719615538        0.8726918362
 H          2.1518662675       -0.1714388460        0.3672971522
 N          3.4872826282        2.0170988010        0.8534450796
 S          4.0758323515        1.5764944230       -0.6540913236
 O          5.3115460536        2.3227392991       -0.7775687084
 O          3.1022764099        1.7899562948       -1.6979108999
 C          4.4734253239       -0.1514216401       -0.5018896082
 C          3.9944668671       -1.0442582655       -1.4398859339
 C          4.3459960928       -2.3809173258       -1.3317009689
 C          5.1652633228       -2.7975838739       -0.2930421714
 C          5.6364304445       -1.8873602256        0.6412812812
 C          5.2922467952       -0.5493195639        0.5366827337
 H          5.6426945184        0.1895269816        1.2375521640
 H          6.2702801651       -2.2171705648        1.4483990022
 H          5.4346717182       -3.8389694000       -0.2114182548
 H          3.9764979616       -3.0896864762       -2.0559872132
 H          3.3473501150       -0.6777709916       -2.2218547076
 H          3.8362261203        2.9272771165        1.1188183128
 H          1.8450443772        3.7287031807        2.0614718092
 H         -0.4994404487        3.2670270852        2.6784443232
 H         -1.5194101927        1.0900903475        2.1271059123
 H         -0.7392722153       -1.4550508604        1.8595340726
 C          0.4615253783       -1.9952319045        0.1767347551
 C          1.4354381737       -2.8294461099        0.9526236171
 C          0.2151324096       -3.4621541834        0.3562031879
 H          0.3330898339       -4.1115235328       -0.4980451134
 H         -0.5887175640       -3.7524466318        1.0168552533
 H          2.3962223177       -3.0452925416        0.5108815140
 H          1.4619825695       -2.6930922603        2.0230042910
 H          0.7480078608       -1.6528471684       -0.8116373524
