  62
        -98.94058473
 C         -0.9984405000       -1.4997409793       -0.0811901607
 C         -1.6582468495       -0.7453704496        0.9207534599
 C         -2.5350502596        0.3523166507        0.4769289007
 C         -2.6599639201        0.5970841813       -0.8407245791
 C         -3.4037197802        1.6831136117       -1.5900782183
 C         -4.4155708998        2.5720445115       -0.8724024975
 C         -5.6929879497        1.8543649215       -0.4357236473
 H         -6.2845409494        2.5440336913        0.1699847132
 H         -6.2751445101        1.6123364719       -1.3284723472
 C         -5.4855482096        0.5579192911        0.3429601720
 H         -6.4708924396        0.1357067511        0.5580720222
 H         -4.9563227499       -0.1639577387       -0.2825009285
 C         -4.7441085590        0.7050816404        1.6695127318
 H         -4.7937832790       -0.2590376498        2.1826350014
 H         -5.2523873587        1.4424823702        2.2937130723
 C         -3.2606742990        1.0964884203        1.5617646314
 H         -3.1445528090        2.1707658003        1.4379104518
 H         -2.7751530287        0.8157150798        2.5013208210
 H         -3.9453082494        3.0699316911       -0.0295848275
 H         -4.7012610700        3.3538603818       -1.5813288171
 H         -2.6245337003        2.3197226318       -2.0257285384
 H         -3.8955816806        1.1850406721       -2.4320645383
 O         -2.0168495805       -0.1635360384       -1.7727174797
 C         -1.1783053105       -1.2172068187       -1.4355448405
 O         -0.6898867410       -1.7950859483       -2.4255114309
 O         -1.5118299491       -0.9741351102        2.1515571998
 C         -0.0633447300       -2.5902128396        0.4062042985
 C          1.3497033602       -2.0751395598        0.5656227081
 C          2.1270190406       -2.4696475604        1.6492378077
 C          3.4203753807       -2.0032094006        1.7967314973
 C          3.9536722604       -1.1111479703        0.8835541175
 C          3.1838655400       -0.7059769197       -0.1998648620
 C          1.8991753199       -1.2044152395       -0.3634093117
 H          1.3285646896       -0.8954158191       -1.2252610213
 N          3.6784920998        0.2259250506       -1.1322193218
 S          2.7351748098        1.5733752009       -1.4532027408
 O          1.6119574494        1.2254970714       -2.2836890605
 O          3.6625270297        2.5373519210       -2.0068536908
 C          2.1841169005        2.1115128203        0.1546978296
 C          3.0540600409        2.8444501798        0.9389264896
 C          2.6638971415        3.2001462993        2.2194266299
 C          1.4230674916        2.8054949693        2.6974771802
 C          0.5614559012        2.0702725297        1.8984681002
 C          0.9427712307        1.7211788902        0.6127277899
 H          0.2935333803        1.1515028906       -0.0341088400
 H         -0.3989150287        1.7473216697        2.2674669905
 H          1.1216567521        3.0719643889        3.6981085904
 H          3.3281414518        3.7767893290        2.8425896499
 H          4.0068948908        3.1341382999        0.5263266793
 H          4.6337082499        0.5081993404       -0.9606847021
 H          4.9555691605       -0.7291740305        1.0060597373
 H          4.0135920410       -2.3214960410        2.6399547770
 H          1.7067011408       -3.1387335306        2.3845318175
 H         -0.4284501096       -2.8620302300        1.4066787985
 C         -0.0596707304       -3.8379710592       -0.4555895620
 C          0.2564674596       -5.1643393695        0.1651404773
 C         -1.1421366205       -4.8583711792       -0.2778475420
 H         -1.5318626809       -5.3506703687       -1.1559618321
 H         -1.8872083802       -4.6672655494        0.4808509783
 H          0.8338862493       -5.8731979293       -0.4079469733
 H          0.4531266801       -5.1916045800        1.2257817772
 H          0.2897102192       -3.6567329288       -1.4640625721
