  62
        -98.93406661
 C         -2.6985006738       -0.6048027414       -0.2460144906
 C         -2.1410962703       -1.3386249266        0.8299980382
 C         -1.3181066387       -2.5031819511        0.4544837030
 C         -1.1596367338       -2.8187709467       -0.8418923266
 C         -0.2504390583       -3.8879126773       -1.3781457332
 C          1.2005584619       -3.3642729764       -1.3946299629
 C          2.1471941394       -4.0832302721       -0.4319578921
 H          2.4243748346       -5.0487309135       -0.8618707715
 H          3.0540095992       -3.4788951883       -0.3583915605
 C          1.6078039096       -4.3408296012        0.9780653020
 H          0.9462709380       -5.2087534124        0.9643398975
 H          2.4639446101       -4.6105246804        1.6003541032
 C          0.8674514792       -3.1740239426        1.6444809660
 H          1.1375374329       -3.1579476577        2.7028961245
 H          1.1847618536       -2.2156341072        1.2285752089
 C         -0.6688913165       -3.2681821340        1.5736161702
 H         -0.9734005566       -4.3178910646        1.5299886343
 H         -1.0862904911       -2.8377694746        2.4888162288
 H          1.6068013276       -3.4561009416       -2.4036049926
 H          1.1809621153       -2.2967853849       -1.1617775836
 H         -0.3309986235       -4.7854195347       -0.7689455551
 H         -0.5819286759       -4.1189347441       -2.3909575112
 O         -1.7640315072       -2.1289651035       -1.8443557083
 C         -2.4986246208       -0.9896758446       -1.5741071447
 O         -2.9453865191       -0.4164790409       -2.5900088926
 O         -2.3071103652       -1.0598832786        2.0458752949
 C         -3.4142181430        0.7295842358       -0.0904940689
 C         -2.4213106396        1.8234861030       -0.4029481418
 C         -2.7533073986        2.9011925274       -1.2145280828
 C         -1.8007240229        3.8486817974       -1.5475266075
 C         -0.4961404410        3.7223004655       -1.1061868515
 C         -0.1558605498        2.6495186991       -0.2892206059
 C         -1.1241911026        1.7300793427        0.0807892145
 H         -0.8451419307        0.9072440581        0.7223219024
 N          1.1584570867        2.4683141708        0.1720732958
 S          1.7060814049        0.8718112282        0.3102305314
 O          1.2164631166        0.0771735323       -0.7929561954
 O          1.4055862251        0.3991674871        1.6369394050
 C          3.4657003840        1.1191289143        0.1583868652
 C          4.1620723425        1.6012827455        1.2509885541
 C          5.5243287974        1.8250797893        1.1309549456
 C          6.1640071691        1.5641276667       -0.0720514423
 C          5.4525539318        1.0777711343       -1.1584378718
 C          4.0890024143        0.8541007908       -1.0459162419
 H          3.4947414785        0.4708717914       -1.8602208655
 H          5.9525181114        0.8716764566       -2.0910556428
 H          7.2245359924        1.7377528797       -0.1627251146
 H          6.0813534663        2.1999971853        1.9742872004
 H          3.6230753982        1.7777626136        2.1671947695
 H          1.8291242420        3.0564981870       -0.3036592107
 H          0.2552944819        4.4408330348       -1.3962748081
 H         -2.0703000627        4.6799268446       -2.1811405710
 H         -3.7560286434        2.9772003108       -1.6086248240
 H         -4.1842879886        0.7535552447       -0.8795934182
 C         -4.1203427399        0.9256233019        1.2403652082
 C         -3.5655624934        1.7785942051        2.3370956404
 C         -4.7591713898        2.2447096923        1.5620004026
 H         -5.7230514855        2.2440623902        2.0476690214
 H         -4.6139424811        3.0541573772        0.8629127223
 H         -3.6980457691        1.4353287470        3.3515197818
 H         -2.6187474401        2.2685972776        2.1680532639
 H         -4.6563442384        0.0350642290        1.5492434445
