  62
        -98.93873150
 C         -2.7795391319       -0.0572158263        0.1795503912
 C         -2.6239923685       -0.9284325742       -0.9300057529
 C         -2.1730335183       -2.2909875460       -0.6354007069
 C         -1.9389555800       -2.6504328713        0.6393369827
 C         -1.4761369082       -4.0017594908        1.1112052541
 C          0.0442107414       -4.1934533248        1.0239531306
 C          0.5880322133       -4.4080118653       -0.3890948885
 H          1.6111406674       -4.7750793563       -0.2869151541
 H          0.0089231031       -5.1850099459       -0.8899407038
 C          0.6082035780       -3.1386848304       -1.2517406471
 H          0.5395104366       -2.2558814422       -0.6108229406
 H          1.5671240070       -3.0620074977       -1.7708891931
 C         -0.4835566704       -3.0677538582       -2.3198379414
 H         -0.3128963046       -3.8448685915       -3.0691333388
 H         -0.4014183912       -2.0957313487       -2.8138444024
 C         -1.9146605502       -3.2143033581       -1.7871559588
 H         -2.6058400157       -2.9438441052       -2.5895476960
 H         -2.1024078547       -4.2475153688       -1.4947099315
 H          0.2997080109       -5.0667231734        1.6289645891
 H          0.5321342889       -3.3208661110        1.4661643039
 H         -1.9783391852       -4.7836288304        0.5405092088
 H         -1.7761221890       -4.0848806231        2.1580891181
 O         -2.1231809796       -1.7982939997        1.6793498046
 C         -2.4909185659       -0.4718624452        1.4800944961
 O         -2.5338321210        0.1919018032        2.5337713734
 O         -2.8625209369       -0.5754372499       -2.1166922325
 C         -3.1293583166        1.3846712275       -0.1502666679
 C         -1.8593773090        2.1021263372       -0.5378716197
 C         -1.7851684412        2.9219194914       -1.6573202695
 C         -0.5808217416        3.4864718932       -2.0424972601
 C          0.5796277445        3.2230847882       -1.3350841278
 C          0.5097167180        2.4189684267       -0.2087454441
 C         -0.7013093403        1.8846598112        0.1948202213
 H         -0.7303905153        1.2471807020        1.0685487825
 N          1.7142064763        2.0423296508        0.4652900189
 S          2.0899625493        0.4347264883        0.0629999563
 O          1.7608720709        0.2365446297       -1.3254376592
 O          1.4900415721       -0.4735622696        1.0192553630
 C          3.8617350631        0.4342137970        0.2590305845
 C          4.4458801036       -0.2098124083        1.3313379848
 C          5.8250696217       -0.1669549387        1.4681639422
 C          6.5900760704        0.5194294609        0.5379266809
 C          5.9878869621        1.1630373376       -0.5334344969
 C          4.6106834458        1.1221051428       -0.6762207916
 H          4.0968607805        1.5979159167       -1.4949230126
 H          6.5862094059        1.6946969468       -1.2556106615
 H          7.6625782665        0.5516156577        0.6474685840
 H          6.2953462871       -0.6684137471        2.2987214162
 H          3.8114363871       -0.7346576465        2.0275772765
 H          1.5994412324        2.0729800733        1.4708473901
 H          1.5322680450        3.6161993806       -1.6497335996
 H         -0.5408930062        4.1133665356       -2.9201279403
 H         -2.6739740729        3.0878647712       -2.2485586248
 H         -3.7628810550        1.3315043627       -1.0503981717
 C         -3.9206778514        2.1043472034        0.9294288175
 C         -3.3267762366        3.1639934976        1.8035481990
 C         -4.3118382392        3.5403157302        0.7403512061
 H         -5.3027245659        3.8471477611        1.0380553851
 H         -3.9319835650        4.0496004362       -0.1321282657
 H         -3.6336739500        3.1888430023        2.8376675547
 H         -2.2896151053        3.4217451869        1.6537165828
 H         -4.6540731553        1.4545786017        1.3945508812
