  62
        -98.93882452
 C          2.5821475608        0.1418781998       -0.4328402044
 C          2.2234902066        0.7919583166        0.7710873442
 C          1.7147290658        2.1691924616        0.6481693391
 C          1.6128506051        2.7276324217       -0.5699698794
 C          1.1725174021        4.1208155454       -0.9509931527
 C          0.0208874364        4.7602920967       -0.1695936446
 C         -1.1199187527        3.8032794745        0.2043375875
 H         -2.0684773259        4.2396284385       -0.1153170169
 H         -1.0074812450        2.8510596400       -0.3183437408
 C         -1.2045022560        3.5327816131        1.7075333100
 H         -1.0604567084        4.4699043523        2.2507193880
 H         -2.2073837466        3.1667536525        1.9392180616
 C         -0.2112246365        2.4925122143        2.2190605968
 H         -0.4408919763        1.5231146154        1.7671748202
 H         -0.3458632197        2.3908177751        3.2989212012
 C          1.2675134832        2.8070077975        1.9323529597
 H          1.4521885408        3.8787046368        1.9380159391
 H          1.8716919917        2.3458718506        2.7185222721
 H          0.4080910659        5.2281084634        0.7344901588
 H         -0.3691255277        5.5641314635       -0.7971866306
 H          2.0487160910        4.7748563157       -0.8926619677
 H          0.8977213935        4.0492587019       -2.0067905697
 O          1.9800097637        2.0639531715       -1.7061882745
 C          2.4360712821        0.7590643930       -1.6713320582
 O          2.6846916941        0.2683237026       -2.7945819325
 O          2.3318598044        0.2516661427        1.9031451232
 C          3.0176773695       -1.3117483270       -0.4026270338
 C          1.9337425256       -2.1430734466        0.2440531375
 C          2.1871820487       -3.2158583249        1.0879041538
 C          1.1372656735       -3.9174991757        1.6573952388
 C         -0.1751722341       -3.5551085644        1.4199660800
 C         -0.4388764115       -2.4789687493        0.5770268083
 C          0.6120133023       -1.8142754036       -0.0290071265
 H          0.3998233033       -1.0023256563       -0.7090645080
 N         -1.7566615827       -2.0344690497        0.3794760418
 S         -2.1404482970       -0.8460946432       -0.7413959226
 O         -1.9395054970       -1.3355337819       -2.0903018743
 O         -1.4667325038        0.3769048658       -0.3918131807
 C         -3.8832843589       -0.6840141853       -0.4076281028
 C         -4.7956440753       -1.4030807604       -1.1559646488
 C         -6.1451330137       -1.2849928095       -0.8618816974
 C         -6.5564734264       -0.4558351670        0.1707494570
 C         -5.6291109616        0.2617251507        0.9117994479
 C         -4.2788171560        0.1478851790        0.6223756649
 H         -3.5199588591        0.6900904230        1.1629156766
 H         -5.9523425658        0.9083184075        1.7115483796
 H         -7.6069737870       -0.3652797526        0.3974676958
 H         -6.8688524478       -1.8381211185       -1.4384978131
 H         -4.4304418314       -2.0254586737       -1.9570932617
 H         -2.4575455140       -2.7580205065        0.4422091283
 H         -0.9892643478       -4.0868443022        1.8872579811
 H          1.3466974219       -4.7527394314        2.3084481030
 H          3.2044663266       -3.4988368311        1.3045010253
 H          3.1122393041       -1.6244666910       -1.4540565408
 C          4.3644689371       -1.4549680027        0.2759768169
 C          5.3198697241       -2.5274687603       -0.1510544067
 C          5.6005647190       -1.0952903878       -0.4903495476
 H          6.3991333631       -0.5861693297        0.0278142930
 H          5.4696102445       -0.7741777318       -1.5139108551
 H          5.9317546263       -3.0022202763        0.6010735888
 H          5.0110140156       -3.1837445387       -0.9508360113
 H          4.3280819850       -1.1849367720        1.3249963682
