  62
        -98.93894464
 C          2.4346754819       -0.8691385346       -0.8299967834
 C          3.3242379680       -0.6204259217        0.2438349736
 C          4.1405432671        0.5982416079        0.1288615697
 C          3.9859741166        1.4017411129       -0.9387179615
 C          4.7158075947        2.6953279853       -1.1536391359
 C          3.9343795797        3.8807291497       -0.5699791248
 C          3.4580849309        3.6604422398        0.8658888385
 H          2.9477525349        4.5725333450        1.1828465024
 H          2.7168637874        2.8576904375        0.8779928725
 C          4.5777186224        3.3291497347        1.8623779449
 H          5.5431447173        3.6174177355        1.4448558648
 H          4.4266047342        3.9202654957        2.7680584465
 C          4.6297461110        1.8618980776        2.2922087071
 H          3.6388109624        1.5406460723        2.6235548687
 H          5.3025779870        1.7826980034        3.1503144625
 C          5.1259663162        0.8731178079        1.2298353512
 H          6.0758330917        1.2207123955        0.8184619106
 H          5.2959469440       -0.0871169228        1.7255206696
 H          4.5701614692        4.7669572477       -0.6120440052
 H          3.0582165525        4.0605462966       -1.1971438288
 H          5.6987358699        2.6315976136       -0.6910082706
 H          4.8386763876        2.8461106704       -2.2274636648
 O          3.0973663581        1.1464999660       -1.9331963928
 C          2.2962253407        0.0191793886       -1.8979573542
 O          1.5091844550       -0.0804767600       -2.8623545161
 H         -0.5464261273       -0.4890055509       -1.0319675816
 C         -0.5610844021       -1.0130799313       -0.0840248716
 C          0.4577848704       -1.9167231167        0.1958445704
 C          0.4391805271       -2.5854026991        1.4118606839
 C         -0.5734348465       -2.3429703977        2.3250183993
 C         -1.5827378688       -1.4403290614        2.0461869842
 C         -1.5758031331       -0.7693199768        0.8291626331
 N         -2.5959081869        0.1582596950        0.5376528264
 S         -4.1775045867       -0.3518174135        0.8555877206
 O         -4.4502454012       -0.1367112970        2.2546389987
 O         -4.3669539500       -1.7031396060        0.3775119821
 C         -5.1263011592        0.7932560747       -0.1253934435
 C         -5.4021214280        2.0450578139        0.3910597693
 C         -6.1272195383        2.9410654785       -0.3781479740
 C         -6.5613020382        2.5729922290       -1.6430860558
 C         -6.2768377751        1.3129219948       -2.1475110738
 C         -5.5509162459        0.4122545443       -1.3840577515
 H         -5.3153481350       -0.5808315193       -1.7321743045
 H         -6.6178427688        1.0284876582       -3.1299815501
 H         -7.1276004474        3.2712541737       -2.2389297686
 H         -6.3525203975        3.9209321081        0.0107606317
 H         -5.0528286874        2.2832482477        1.3821303123
 H         -2.5179786674        0.5143012998       -0.4057668898
 H         -2.3805357452       -1.2528063968        2.7467705717
 H         -0.5768506992       -2.8664328830        3.2694030767
 H          1.2229410773       -3.2849629517        1.6501492360
 C          1.5390347322       -2.0984194111       -0.8427296354
 H          1.0532184384       -2.1022321357       -1.8285053206
 C          2.3308223991       -3.3790530491       -0.6915594508
 C          1.6939277316       -4.6813302018       -1.0697836825
 C          2.7836262096       -4.1044558457       -1.9214208642
 H          3.7530654635       -4.5794999559       -1.9111075729
 H          2.5153941733       -3.6818708579       -2.8789772485
 H          1.9136128900       -5.5553642360       -0.4760301477
 H          0.6828755250       -4.6499640518       -1.4475921993
 H          3.0064018832       -3.3687484739        0.1541046323
 O          3.4462097083       -1.3712852830        1.2457345947
