  62
        -98.94009409
 C         -2.4180607408       -1.1170222507       -0.0365870202
 C         -2.2271087905        0.2770211592        0.1204572005
 C         -3.4093892603        1.0402388392        0.5484212610
 C         -4.5658971604        0.3925856392        0.7794905308
 C         -5.8579368003        1.0538244493        1.1612419513
 C         -6.6874343503        1.4110118901       -0.0802839284
 C         -5.8970803003        2.1485229805       -1.1611265181
 H         -5.1333003605        1.4795661506       -1.5643905285
 H         -6.5899711604        2.3726794111       -1.9749489279
 C         -5.2306686000        3.4470156902       -0.6855866675
 H         -5.4063583500        4.2250008706       -1.4314376570
 H         -5.6901234799        3.7805123297        0.2454744328
 C         -3.7159869600        3.3488371898       -0.4940467077
 H         -3.3209473998        4.3608260896       -0.3702832972
 H         -3.2575518602        2.9283147402       -1.3929467379
 C         -3.2488120901        2.5253371590        0.7128995818
 H         -2.1750439800        2.6970957888        0.8373038618
 H         -3.7584685299        2.8716990286        1.6144449421
 H         -7.0777978806        0.4871828404       -0.5129602689
 H         -7.5338236202        2.0236319901        0.2351712420
 H         -6.4286607903        0.3608076590        1.7814053010
 H         -5.6430096701        1.9510892689        1.7382192118
 O         -4.7019505707       -0.9512618607        0.6436934501
 C         -3.6387419409       -1.7370547106        0.2310918296
 O         -3.9001727711       -2.9540285005        0.1480167289
 H          1.3327647691       -1.0789074910       -0.8399362906
 C          1.1174436492       -1.3918138915        0.1669458093
 C         -0.1343018709       -1.8803821514        0.5039507691
 C         -0.3707422108       -2.2687273121        1.8208722289
 C          0.6181412793       -2.1568797428        2.7778538189
 C          1.8587368094       -1.6422107628        2.4433874891
 C          2.1072368993       -1.2567379122        1.1319746392
 N          3.3768233093       -0.7662440022        0.7660054294
 S          3.4823803495        0.6149985783       -0.2040651999
 O          2.8315760598        1.7334567981        0.4415067208
 O          3.0556557693        0.2921838391       -1.5408335900
 C          5.2506506495        0.8556078280       -0.1873326199
 C          5.8005464398        1.8220473374        0.6329752606
 C          7.1770857098        1.9842150572        0.6501729405
 C          7.9763949596        1.1791417575       -0.1470188700
 C          7.4100994494        0.2131295880       -0.9657195805
 C          6.0345712593        0.0470853083       -0.9882701704
 H          5.5495148291       -0.6832070213       -1.6144771408
 H          8.0348336792       -0.4091431918       -1.5859605809
 H          9.0471874996        1.3073766272       -0.1324046001
 H          7.6193462000        2.7365816867        1.2832027909
 H          5.1386338700        2.4305244072        1.2282384409
 H          3.9708430095       -0.6378061428        1.5759636594
 H          2.6285163894       -1.5404592534        3.1937538990
 H          0.4205011093       -2.4616293833        3.7947003688
 H         -1.3481784909       -2.6530010821        2.0814251388
 C         -1.2654269910       -1.9979744507       -0.4883435308
 H         -1.6428379312       -3.0303355906       -0.4560454613
 C         -0.8705818411       -1.6697358400       -1.9120740707
 C         -0.1833972714       -2.7025699796       -2.7519474913
 C         -1.6050864713       -2.3264388192       -3.0403900010
 H         -1.8172749813       -1.7447049987       -3.9249538606
 H         -2.3840499514       -3.0291694692       -2.7817748513
 H          0.5852559886       -2.3777293094       -3.4367543612
 H          0.0040605885       -3.6656517999       -2.3017322819
 H         -0.5807460509       -0.6327701500       -2.0421518001
 O         -1.1296763404        0.8595810891       -0.0863941993
