  62
        -98.93941662
 C         -2.2057668527       -0.9214947480       -0.0621095109
 C         -3.1639895267       -0.6383036310        0.9424364534
 C         -3.9823234801        0.5729815567        0.7643255752
 C         -3.7774508043        1.3522553008       -0.3138965632
 C         -4.4113009936        2.6617564022       -0.7352344944
 C         -5.6829624494        3.1675770868       -0.0592641941
 C         -6.9317775034        2.3331312183       -0.3429260378
 H         -7.7479500246        2.7200106804        0.2709321875
 H         -7.2094926106        2.4707735836       -1.3909739046
 C         -6.7921280594        0.8329323224       -0.0972032737
 H         -6.0391154755        0.4195155622       -0.7712380042
 H         -7.7455128353        0.3624612284       -0.3524507233
 C         -6.4470826163        0.4350135938        1.3363271568
 H         -6.5328034876       -0.6526296211        1.4056445815
 H         -7.1734480081        0.8720915193        2.0240911804
 C         -5.0339828838        0.8183519068        1.8080972939
 H         -4.9979389809        1.8487081109        2.1536235561
 H         -4.7763199645        0.1789828864        2.6573547825
 H         -5.5249747826        3.2692025520        1.0103434561
 H         -5.8626458303        4.1732561184       -0.4490078879
 H         -3.6285436281        3.4191801639       -0.6144147864
 H         -4.5884261181        2.5742809805       -1.8120571854
 O         -2.8304377196        1.0476466534       -1.2485966921
 C         -2.0281160254       -0.0778145848       -1.1567142255
 O         -1.2290273513       -0.2004267279       -2.1062881333
 O         -3.3281155492       -1.3686766098        1.9555073982
 C         -1.3326746914       -2.1532650213        0.1199501193
 C          0.0503687594       -1.6871007484        0.5025038758
 C          0.3606496576       -1.4804872041        1.8434919194
 C          1.5937402190       -0.9761356600        2.2128791791
 C          2.5379327328       -0.6543744267        1.2533435203
 C          2.2307461216       -0.8403080515       -0.0873535185
 C          1.0031908324       -1.3734572311       -0.4550158726
 H          0.7711364243       -1.4960555672       -1.5013267721
 N          3.1748639814       -0.4865447731       -1.0704067682
 S          3.7883950829        1.0778610308       -1.0014731975
 O          2.8653985980        1.9879816257       -0.3625189561
 O          4.1773092426        1.3974342850       -2.3580328653
 C          5.2591342963        0.9052812610       -0.0101887113
 C          6.2237789144        0.0089070701       -0.4272101419
 C          7.3755710942       -0.1349213378        0.3295936139
 C          7.5441360262        0.6177181670        1.4824182161
 C          6.5685124320        1.5165390900        1.8854592875
 C          5.4133862181        1.6644030410        1.1332243185
 H          4.6251822840        2.3467381106        1.4096363599
 H          6.7010771086        2.1016675336        2.7813238015
 H          8.4412281036        0.5035639668        2.0701825623
 H          8.1367322867       -0.8323410712        0.0190529391
 H          6.0552168953       -0.5522787937       -1.3309898005
 H          2.8561730373       -0.6867966966       -2.0084782902
 H          3.4965068632       -0.2479561319        1.5318592865
 H          1.8213703658       -0.8258840685        3.2572407452
 H         -0.3865464320       -1.7031769609        2.5920866438
 H         -1.7612838777       -2.6863456820        0.9788738158
 C         -1.3546367006       -3.0728631991       -1.0827372327
 C         -0.8260658783       -4.4681229325       -0.9411323534
 C         -2.2981589132       -4.2365739859       -1.0970735090
 H         -2.7680768988       -4.5055758696       -2.0312664723
 H         -2.9322121688       -4.3767428739       -0.2339668823
 H         -0.2825029464       -4.9000607486       -1.7673306110
 H         -0.4594616382       -4.7634824772        0.0302158263
 H         -1.1907462421       -2.5615738972       -2.0230207035
