  62
        -98.92985650
 C         -2.1930487394       -1.0747666171       -0.4734846603
 C         -2.9656039922       -0.0574953154       -1.0865484705
 C         -4.3413886529        0.1001386657       -0.5787056413
 C         -4.7794979163       -0.6971002194        0.4109649369
 C         -6.1181374663       -0.5993941411        1.0858154981
 C         -6.1184639400        0.5712636454        2.0897337539
 C         -7.0674543116        1.7137351051        1.7265426483
 H         -8.0915213153        1.4100154642        1.9538294370
 H         -6.8235257946        2.5589678183        2.3736364170
 C         -7.0292195619        2.1757896435        0.2666297980
 H         -7.6102654958        1.4891090664       -0.3508013355
 H         -7.5409833373        3.1396775187        0.2252414819
 C         -5.6340254621        2.3317105321       -0.3519137184
 H         -4.8867281727        2.5016624783        0.4233760817
 H         -5.6417420399        3.2200996833       -0.9865842264
 C         -5.1904877245        1.1521926981       -1.2376161519
 H         -6.0692618155        0.6825803541       -1.6879107873
 H         -4.5714608405        1.5405938765       -2.0517280631
 H         -6.3919429957        0.2015118908        3.0791551354
 H         -5.0987620863        0.9539407306        2.1692217992
 H         -6.8976062733       -0.4642014922        0.3392503122
 H         -6.2899933535       -1.5434840020        1.6032749339
 O         -4.0048322562       -1.6590252144        0.9789754515
 C         -2.7056724920       -1.8688345598        0.5553793493
 O         -2.1123487720       -2.7865252903        1.1597679282
 H          1.4173336263       -2.1899151211        0.4868312721
 C          1.3116345471       -1.1129239794        0.4936980522
 C          0.2267699335       -0.5267288054       -0.1417528752
 C          0.1055208793        0.8592863822       -0.1087690215
 C          1.0549672767        1.6339968254        0.5332641640
 C          2.1494440855        1.0447390382        1.1436245766
 C          2.2717017829       -0.3368314839        1.1247866651
 N          3.4333127228       -0.9278235480        1.6973722523
 S          4.6452811520       -1.1013767752        0.5325823915
 O          4.1215601408       -1.7066193037       -0.6734410723
 O          5.7220033143       -1.8172615137        1.1791762459
 C          5.1127310256        0.5827401323        0.2172155354
 C          4.5823243587        1.2333998435       -0.8792842727
 C          4.9115889171        2.5629445992       -1.0903959339
 C          5.7590405797        3.2129004221       -0.2058400607
 C          6.2851703293        2.5434605179        0.8892135849
 C          5.9580762455        1.2147866099        1.1079228899
 H          6.3433082001        0.6532250301        1.9429142136
 H          6.9451291202        3.0529524048        1.5727546656
 H          6.0115492195        4.2482828298       -0.3721898100
 H          4.5023371769        3.0851450262       -1.9402133623
 H          3.9273174396        0.6892731824       -1.5411401654
 H          3.2473227461       -1.8406321889        2.0930082547
 H          2.8985539186        1.6392071396        1.6406608408
 H          0.9472132039        2.7075572778        0.5495979152
 H         -0.7362135964        1.3202028425       -0.6031706784
 C         -0.7627192137       -1.3913570284       -0.8768213080
 H         -0.5983939451       -2.4299312056       -0.5464243227
 C         -0.5385587052       -1.3695767467       -2.3837711750
 C          0.2222025505       -0.3010165468       -3.1028618172
 C          0.8240588397       -1.6626156647       -2.9416110217
 H          0.8999964030       -2.3034537260       -3.8074191598
 H          1.6435722975       -1.7729585040       -2.2444691478
 H         -0.1398886016       -0.0015130781       -4.0743836041
 H          0.6353505287        0.5101389560       -2.5251549760
 H         -1.3816654901       -1.7975056666       -2.9174175372
 O         -2.5491713856        0.6899569088       -2.0066355112
