  62
        -98.93890221
 C         -1.3219347992       -1.0036525045       -0.1602433635
 C         -2.4309528955       -1.0400538949        0.7238574779
 C         -3.4482432646        0.0069112142        0.5588779749
 C         -3.2678762786        0.9448874812       -0.3883248822
 C         -4.2399883544        2.0377574329       -0.7322473780
 C         -5.4024694842        1.4673129345       -1.5697230771
 C         -6.7636974615        1.5180804209       -0.8755903408
 H         -7.1358323615        2.5444759757       -0.8994731769
 H         -7.4518652913        0.9040215424       -1.4603331858
 C         -6.7878394536        1.0449514929        0.5809899589
 H         -6.4160862909        1.8386379554        1.2308471068
 H         -7.8354447594        0.8895778613        0.8474710636
 C         -6.0069600257       -0.2409328015        0.8815559729
 H         -5.9045698563       -0.8479222480       -0.0181535127
 H         -6.5840477992       -0.8287880064        1.5982343669
 C         -4.6168100843       -0.0160450472        1.5051893311
 H         -4.6253190673        0.9048102681        2.0954709863
 H         -4.4031425422       -0.8419608018        2.1903238538
 H         -5.4769787877        2.0166055145       -2.5094796532
 H         -5.1622760522        0.4338634597       -1.8280422680
 H         -4.6132652925        2.4965410469        0.1808784402
 H         -3.6928605749        2.7905699229       -1.3006281763
 O         -2.1905893625        0.9568769777       -1.2115617886
 C         -1.1871546741        0.0002836843       -1.1200137414
 O         -0.2711810990        0.1680767311       -1.9478676946
 H          0.8205334134        0.3847062811        0.4172995670
 C          1.2643240597       -0.3674543638        1.0493651592
 C          0.8058345325       -1.6746292735        1.0019312753
 C          1.3804845457       -2.6141858852        1.8516211701
 C          2.3882025570       -2.2503081237        2.7252815012
 C          2.8494121553       -0.9467083263        2.7628739960
 C          2.2790162952        0.0021724208        1.9220885924
 N          2.7084554453        1.3359915095        1.9587340871
 S          2.8028979491        2.2434233816        0.5557767925
 O          3.6685072322        3.3474444867        0.9171227129
 O          1.4841756641        2.6039543604        0.1022024762
 C          3.6473998295        1.1854385419       -0.6047022802
 C          2.9645650105        0.5563323892       -1.6244139576
 C          3.6651836799       -0.2989704883       -2.4628172099
 C          5.0206194790       -0.5100985474       -2.2691520486
 C          5.6925276702        0.1358872230       -1.2418660773
 C          5.0007729766        0.9898117785       -0.4001103003
 H          5.4873676633        1.5228844971        0.4005877981
 H          6.7483719381       -0.0250092139       -1.0953148565
 H          5.5558148267       -1.1793307194       -2.9242281675
 H          3.1382977029       -0.7960567745       -3.2621504223
 H          1.9072929784        0.7294007709       -1.7548426526
 H          3.4957721280        1.5104538138        2.5659429355
 H          3.6338303964       -0.6586648473        3.4456563145
 H          2.8209741701       -2.9877248492        3.3836527443
 H          1.0203008616       -3.6314156582        1.8362147386
 C         -0.2795187354       -2.0884371636        0.0329850288
 H         -0.8200238028       -2.9305275396        0.4884091926
 C          0.3595096813       -2.5705444609       -1.2558129434
 C          0.8370135934       -3.9860956399       -1.3667324452
 C         -0.3761523140       -3.5425767744       -2.1267580297
 H         -0.3094237996       -3.4246151211       -3.1976204117
 H         -1.3437928670       -3.8824754510       -1.7867233132
 H          1.7459579220       -4.1787047816       -1.9149966083
 H          0.6869985174       -4.6386353807       -0.5205893414
 H          0.9402106809       -1.8042237429       -1.7516142575
 O         -2.5642147898       -1.9238510664        1.6141280646
