  62
        -98.93509402
 C         -2.4099561663       -1.0646889209       -0.4648285360
 C         -3.2481818317       -0.4089203978        0.4719353981
 C         -3.6567030620        0.9760640371        0.1738085135
 C         -3.2279531186        1.5399506928       -0.9702957737
 C         -3.4636394261        2.9401910516       -1.4701343311
 C         -2.5869246572        3.9739879966       -0.7460023225
 C         -2.5284780132        3.8145549177        0.7710281966
 H         -2.1360706242        2.8240629879        1.0119059140
 H         -1.8073378311        4.5427025622        1.1523905159
 C         -3.8504126497        4.0360752366        1.5031113444
 H         -4.2166168980        5.0409119268        1.2814298315
 H         -3.6362703882        3.9891664378        2.5738925076
 C         -4.9659406448        3.0331295069        1.1986869276
 H         -5.7329840374        3.1586023717        1.9683156853
 H         -5.4439456546        3.2529213868        0.2479124974
 C         -4.5384046634        1.5696848972        1.2458215572
 H         -4.0290702505        1.3746733118        2.1966031987
 H         -5.4381228891        0.9430455512        1.2678021552
 H         -1.5663391548        3.8784601472       -1.1260895472
 H         -2.9506662196        4.9719894524       -0.9966605956
 H         -4.5151345338        3.1976953919       -1.3872383981
 H         -3.2005242168        2.9432974983       -2.5302252132
 O         -2.4349231691        0.8691663229       -1.8509836742
 C         -1.9846628770       -0.4177252518       -1.6240578067
 O         -1.2343724060       -0.8444065287       -2.5270397630
 O         -3.6445756873       -0.9622068909        1.5335206379
 C         -1.9618842923       -2.4718470047       -0.1035704344
 C         -0.6137105921       -2.4196737215        0.5759732848
 C         -0.4373025402       -2.8941455406        1.8699834252
 C          0.7899021770       -2.7843212557        2.5016317964
 C          1.8618720452       -2.1889548675        1.8609875543
 C          1.6931905403       -1.7122804313        0.5686959852
 C          0.4707255632       -1.8429073765       -0.0700886677
 H          0.3497418819       -1.4605244117       -1.0734491895
 N          2.7753666216       -1.0564166136       -0.0765158959
 S          2.9917731592        0.5349473430        0.4651463981
 O          2.9509554769        0.5369549927        1.9051417680
 O          2.0600057380        1.4193370282       -0.2056580235
 C          4.6515685391        0.8633707767       -0.0937892692
 C          4.8517604621        1.5703823772       -1.2630582025
 C          6.1489598185        1.7901693792       -1.6997107241
 C          7.2169392588        1.2980012984       -0.9651686495
 C          6.9993685094        0.5880579132        0.2064303554
 C          5.7052215765        0.3658909804        0.6483612487
 H          5.4875628297       -0.1721980135        1.5558109476
 H          7.8325045523        0.2082704120        0.7754496057
 H          8.2250696743        1.4710376236       -1.3072445957
 H          6.3201227991        2.3432671661       -2.6092636292
 H          3.9915100677        1.9409315493       -1.7975984292
 H          2.6103821871       -1.0013516490       -1.0747945657
 H          2.8127209836       -2.0671877787        2.3523370262
 H          0.9087934040       -3.1552826367        3.5082790582
 H         -1.2779131777       -3.3293419455        2.3905426127
 H         -2.6938292420       -2.8284203964        0.6337096804
 C         -1.9474671900       -3.4358911713       -1.2724953542
 C         -2.0372803743       -4.9065119483       -1.0004673088
 C         -3.1966951997       -4.1863315371       -1.6193260627
 H         -3.4190445051       -4.3588474787       -2.6615157757
 H         -4.0710941633       -4.0079139800       -1.0105274179
 H         -1.4611172208       -5.5790215354       -1.6169324310
 H         -2.1271964789       -5.2199076361        0.0284930385
 H         -1.3201447346       -3.1104110555       -2.0918147666
