  62
        -98.93903848
 C          1.4960356085        0.8144193265       -0.3316642711
 C          2.7963096911        1.3633124892       -0.3083398728
 C          3.9224010385        0.4129391964       -0.4018475552
 C          3.6514649281       -0.9016544461       -0.5067590160
 C          4.6242708552       -2.0488105623       -0.5756843211
 C          5.2438139154       -2.3816623771        0.7912288387
 C          5.6910460518       -1.1709005727        1.6060778520
 H          4.8373893656       -0.5088764990        1.7623330186
 H          6.0065220851       -1.5300269545        2.5893236102
 C          6.8478785021       -0.3743380604        1.0074363080
 H          7.7120737859       -1.0318136327        0.8884712700
 H          7.1175754840        0.3995385937        1.7308465896
 C          6.5679680285        0.3072484869       -0.3336528883
 H          7.3764319799        1.0230792616       -0.5094520787
 H          6.6060791664       -0.4066102027       -1.1520864985
 C          5.2662517894        1.1010946886       -0.3866662934
 H          5.2379631289        1.7993771339        0.4578053558
 H          5.2818985648        1.7351822595       -1.2816203772
 H          6.0919179211       -3.0498687253        0.6326780701
 H          4.4954403164       -2.9189330958        1.3787785428
 H          4.0601032261       -2.9175788089       -0.9215218622
 H          5.3958732475       -1.8410640672       -1.3109268911
 O          2.3764721276       -1.3858808784       -0.5217151232
 C          1.2714955443       -0.5582756640       -0.4344528600
 O          0.1769644153       -1.1484627931       -0.4589186874
 H         -2.4406343442        1.3491838862       -0.2002027780
 C         -1.9629057514        1.1606880117        0.7455033980
 C         -0.5962883088        1.3322190013        0.8942630730
 C         -0.0315876071        1.1202062966        2.1499480195
 C         -0.8116899838        0.7243609581        3.2181515027
 C         -2.1714679529        0.5207888974        3.0572293193
 C         -2.7473750882        0.7445592536        1.8133316847
 N         -4.1234342830        0.5671599086        1.6228929377
 S         -4.7382483415        0.0968576748        0.1448369318
 O         -4.7557877964        1.2169939254       -0.7630843433
 O         -6.0339265340       -0.4634491987        0.4678275272
 C         -3.6687718978       -1.1860451969       -0.4787805689
 C         -3.1452260494       -1.0749795400       -1.7496278496
 C         -2.3399394015       -2.0913764251       -2.2349314186
 C         -2.0705393973       -3.1948322745       -1.4429459093
 C         -2.6050752906       -3.2927604653       -0.1686276069
 C         -3.4140517754       -2.2814663141        0.3206412574
 H         -3.8470132637       -2.3337647804        1.3066669527
 H         -2.3867333216       -4.1509682413        0.4466531979
 H         -1.4329052265       -3.9791600677       -1.8189731441
 H         -1.9160244381       -2.0144431927       -3.2238487397
 H         -3.3728913166       -0.1949750500       -2.3309815222
 H         -4.6172164211        0.1456375537        2.3949846127
 H         -2.7810075555        0.1976803950        3.8871090765
 H         -0.3576203040        0.5616335456        4.1841180402
 H          1.0331506380        1.2643678815        2.2739339979
 C          0.2957783924        1.7385623575       -0.2514632853
 H          0.7031162751        2.7386268853       -0.0405837433
 C         -0.4204532379        1.7728334190       -1.5852804444
 C         -1.2071067846        2.9816687403       -1.9921654921
 C          0.0921175031        2.6691992345       -2.6706080634
 H          0.0715469640        2.3112290367       -3.6890131616
 H          0.9499462166        3.2845028302       -2.4414060998
 H         -2.1277612646        2.8400687954       -2.5388053103
 H         -1.2331654228        3.8144571339       -1.3055233407
 H         -0.7945818600        0.7970283694       -1.8766675795
 O          3.0182776492        2.6010550662       -0.2030622809
