  62
        -98.93969845
 C          2.6431642791       -1.3132187297       -0.3352589327
 C          2.8771435954       -0.5174256628        0.8131489620
 C          3.8815826616        0.5487516918        0.6617663395
 C          4.5087549719        0.7119181663       -0.5163588432
 C          5.5012568308        1.7953517278       -0.8211499053
 C          4.8080620220        3.0368894695       -1.3997864759
 C          3.5975796584        3.5028119959       -0.5906770378
 H          3.2100248488        4.4021834394       -1.0740242003
 H          2.8144194580        2.7433103696       -0.6508138368
 C          3.8985203537        3.8047230551        0.8840862950
 H          4.9715263622        3.9409665882        1.0232822181
 H          3.4145942925        4.7454879557        1.1550088868
 C          3.3919099117        2.7457889762        1.8651693216
 H          2.3364931228        2.5400286090        1.6684301487
 H          3.4607182602        3.1574371127        2.8757807897
 C          4.1520851165        1.4133403772        1.8614463926
 H          5.2224167092        1.6004845554        1.9680349626
 H          3.8158589411        0.8374726314        2.7288517883
 H          5.5402907158        3.8440470975       -1.4597249377
 H          4.4729905232        2.8051843676       -2.4133335578
 H          6.0378307402        2.0565038492        0.0888988357
 H          6.2127538809        1.4125702525       -1.5546741429
 O          4.2668131540       -0.0766898370       -1.5937766127
 C          3.3328886898       -1.0952301924       -1.5326258528
 O          3.2098892746       -1.7379807523       -2.5940021453
 H          0.2769672361       -0.5117685150        0.9088519247
 C         -0.3020222262       -0.9449380838        0.1062623856
 C          0.2516971121       -1.9660047729       -0.6540637304
 C         -0.5120895380       -2.5264121373       -1.6707022455
 C         -1.7960448682       -2.0721237883       -1.9178249596
 C         -2.3426910120       -1.0524670822       -1.1594616226
 C         -1.5887452355       -0.4874027669       -0.1389442149
 N         -2.1286442910        0.5567912359        0.6324365484
 S         -3.6527847042        0.3325463573        1.3012653511
 O         -3.6989042490        1.2116626946        2.4487902222
 O         -3.9197136797       -1.0651822093        1.5509416461
 C         -4.7595891444        0.9533423210        0.0522667157
 C         -5.8052326617        0.1692491390       -0.3940248956
 C         -6.6620367971        0.6799677745       -1.3568784115
 C         -6.4594229228        1.9587115215       -1.8527309460
 C         -5.4055929360        2.7342227410       -1.3922757630
 C         -4.5464584512        2.2303134928       -0.4289801435
 H         -3.7175619681        2.8004272688       -0.0436692486
 H         -5.2507514998        3.7280493402       -1.7804925149
 H         -7.1265725669        2.3537186226       -2.6025058092
 H         -7.4819959375        0.0790495638       -1.7159503747
 H         -5.9198283369       -0.8216255299        0.0157473631
 H         -1.4867456683        0.9119532838        1.3269216684
 H         -3.3421408979       -0.6955008603       -1.3472517368
 H         -2.3777613703       -2.5156698686       -2.7113350304
 H         -0.0888906639       -3.3159414334       -2.2744202343
 C          1.6459196018       -2.4611317324       -0.3659699682
 H          1.9573975757       -3.0849384437       -1.2182712252
 C          1.7175390504       -3.3356525495        0.8804423260
 C          0.6205984433       -3.4433312488        1.8929939419
 C          0.8931083147       -4.5861204283        0.9644644214
 H          1.3469934123       -5.4820618489        1.3598624445
 H          0.1795368039       -4.7625865968        0.1735818722
 H         -0.2816498902       -2.8698898310        1.7448195805
 H          0.9069818158       -3.5333891173        2.9300339412
 H          2.7291165424       -3.3974965684        1.2691763113
 O          2.2877764570       -0.6658411729        1.9161857581
