  62
        -98.93324977
 C         -2.1326732003       -1.0486575894       -0.4693744195
 C         -3.3244917305       -0.9341166390        0.2902961702
 C         -4.1949695805        0.2216573608        0.0167716093
 C         -3.8177190403        1.1182373202       -0.9131668212
 C         -4.4972562303        2.3678312698       -1.4345084922
 C         -5.7269639804        2.9367882902       -0.7320603428
 C         -5.4495799407        3.5495714612        0.6409001069
 H         -4.8887458108        4.4766242711        0.4976781464
 H         -6.4056181708        3.8067576314        1.1017610465
 C         -4.6511301209        2.6758402218        1.6051127776
 H         -3.6651802808        2.4690290716        1.1833072279
 H         -4.4941239611        3.2483387824        2.5233338973
 C         -5.3126303609        1.3546052720        1.9901157583
 H         -4.7093861711        0.9019112226        2.7816721287
 H         -6.3081892510        1.5459689523        2.3952997580
 C         -5.4365058406        0.3239682213        0.8562777790
 H         -5.5778496207       -0.6611490384        1.3103591496
 H         -6.3053023105        0.5246986308        0.2341907387
 H         -6.5036256104        2.1806238103       -0.6665075325
 H         -6.1132234303        3.7319431898       -1.3754385534
 H         -3.7185265703        3.1363502698       -1.4766995025
 H         -4.7625362800        2.1445913092       -2.4738064921
 O         -2.6578120702        0.9714538198       -1.6178139009
 C         -1.7916513201       -0.0960153800       -1.4278769600
 O         -0.7950360200       -0.0596674505       -2.1760798498
 H          0.7552422697       -0.4266198992       -0.3904229193
 C          0.7920743995       -0.9808676886        0.5358307011
 C         -0.1729487105       -1.9390161785        0.8165304215
 C         -0.1102270307       -2.6202678877        2.0269224520
 C          0.9029497891       -2.3591956971        2.9316407720
 C          1.8801668291       -1.4273933772        2.6368860816
 C          1.8196993093       -0.7299106880        1.4341273011
 N          2.7817799293        0.2445320118        1.1349064407
 S          3.2636656996        0.4816832208       -0.4660746993
 O          2.4619402097        1.5320426704       -1.0407914702
 O          3.2980674998       -0.7814765296       -1.1653463985
 C          4.9288793095        1.0733335211       -0.2110489794
 C          5.9638249196        0.1574767411       -0.1744046486
 C          7.2538514895        0.6106224213        0.0519648114
 C          7.4864845994        1.9649562315        0.2395088406
 C          6.4385204694        2.8725082514        0.1987676897
 C          5.1460994294        2.4257133012       -0.0278471002
 H          4.3013458094        3.0930835211       -0.0779190708
 H          6.6231114793        3.9251113515        0.3408432091
 H          8.4911762994        2.3156417616        0.4149812305
 H          8.0707135095       -0.0923578186        0.0800994920
 H          5.7362213897       -0.8838399590       -0.3367530079
 H          3.5648025392        0.2432423423        1.7737807209
 H          2.6797541689       -1.2297200167        3.3344978817
 H          0.9384728189       -2.8940108865        3.8684988524
 H         -0.8717550108       -3.3502295976        2.2587356023
 C         -1.2625016403       -2.2586453592       -0.1798530085
 H         -1.9380204204       -2.9870476389        0.2908484219
 C         -0.6603357600       -2.8974486100       -1.4155934179
 C         -0.3207249200       -4.3564520099       -1.3856749769
 C         -1.4742608698       -3.8714672005       -2.2106543375
 H         -1.3782951896       -3.8628914312       -3.2859118775
 H         -2.4747162699       -4.0845626603       -1.8628189875
 H          0.5741196502       -4.6833140802       -1.8926323965
 H         -0.5410639501       -4.9037625294       -0.4816356466
 H          0.0033148201       -2.2387732303       -1.9617317982
 O         -3.6620318906       -1.7835974084        1.1583962007
