  62
        -98.94091356
 C          2.3870253485        1.2610630811        0.1388414966
 C          2.2700307482       -0.1480830181        0.0307573248
 C          3.3856439031       -0.9247322687        0.5940565790
 C          4.4085007976       -0.2989506285        1.2014150929
 C          5.6057345463       -0.9561569406        1.8326048409
 C          6.7244929449       -1.3003625116        0.8397263205
 C          6.4291270620       -2.4760054983       -0.0926152445
 H          6.1103359451       -3.3356253662        0.4977535726
 H          7.3698602821       -2.7444239361       -0.5773620914
 C          5.3838403781       -2.1783987074       -1.1767325533
 H          5.7416993604       -2.5491431355       -2.1398791605
 H          5.2599143996       -1.0975633081       -1.2765018388
 C          4.0150280213       -2.8125973635       -0.9282290580
 H          4.1039556031       -3.9008975346       -0.9575031246
 H          3.3435026848       -2.5100201104       -1.7362078074
 C          3.3654323171       -2.4114241892        0.4028037675
 H          3.8685112784       -2.9089952556        1.2317232281
 H          2.3198963038       -2.7305107089        0.3861235344
 H          7.6146488703       -1.5435180277        1.4243330370
 H          6.9499163736       -0.4118486850        0.2454073030
 H          6.0000737958       -0.2464461393        2.5630608454
 H          5.2933714109       -1.8586926717        2.3587251140
 O          4.4585415472        1.0531591088        1.3312827078
 C          3.4647325736        1.8584779642        0.8011797467
 O          3.6480007118        3.0777879772        0.9885593900
 H         -0.5890748841        0.8139678251       -1.7595058125
 C         -0.8944354548        1.0636858808       -0.7553397873
 C         -0.0353498868        1.7768053067        0.0642095636
 C         -0.4317260752        2.0527266868        1.3691270587
 C         -1.6621006378        1.6300302816        1.8359437416
 C         -2.5172002156        0.9151137661        1.0153855523
 C         -2.1205945757        0.6155604873       -0.2806500508
 N         -2.9739503707       -0.1157244553       -1.1218155991
 S         -3.8292166731       -1.4187936803       -0.5051618588
 O         -3.1403847798       -2.0643388465        0.5877933356
 O         -4.1288202611       -2.2446818921       -1.6551248592
 C         -5.3427002290       -0.6804974568        0.0790955741
 C         -6.0477114454        0.1347110390       -0.7846799476
 C         -7.2311912641        0.7082353701       -0.3483370226
 C         -7.6900136114        0.4557975570        0.9359500013
 C         -6.9735559598       -0.3684735373        1.7898140091
 C         -5.7881977205       -0.9443155043        1.3594195844
 H         -5.1951153893       -1.5871402310        1.9907262330
 H         -7.3317280423       -0.5647341825        2.7876902558
 H         -8.6112477881        0.9038288014        1.2734690483
 H         -7.7911767126        1.3497496424       -1.0095717186
 H         -5.6592717985        0.3035729084       -1.7749857655
 H         -2.5590596851       -0.3485072538       -2.0125427079
 H         -3.4711590199        0.5691694428        1.3781687916
 H         -1.9585761962        1.8545910747        2.8493683603
 H          0.2437537956        2.5952865728        2.0166301612
 C          1.3311732421        2.2140491609       -0.3990460874
 H          1.5557278289        3.1811351331        0.0781417171
 C          1.4010822154        2.4469695872       -1.9015716240
 C          2.7282230803        2.6132428038       -2.5783677963
 C          1.8819146596        1.4131016451       -2.8728381104
 H          1.3959851118        1.3543667599       -3.8362667834
 H          2.1906920324        0.4556269017       -2.4842560267
 H          3.6125705477        2.4795077705       -1.9720111181
 H          2.8299172811        3.3735419069       -3.3378581217
 H          0.6010572604        3.0971573203       -2.2426911271
 O          1.3042038524       -0.7479405579       -0.5084225504
