  62
        -98.94416883
 C         -2.2519631067        0.8783569855       -0.4018129415
 C         -2.4415198274        0.0089543837        0.6999369753
 C         -3.2814711428       -1.1678561904        0.4420771722
 C         -3.7747077396       -1.3824418472       -0.7910773514
 C         -4.6241844603       -2.5501617448       -1.2144142879
 C         -6.1191818647       -2.3770207396       -0.9129474747
 C         -6.5026634199       -2.4883139229        0.5632076156
 H         -7.5908421132       -2.5662299473        0.6057012399
 H         -6.0940655982       -3.4117396625        0.9747355729
 C         -6.0591368037       -1.2974533372        1.4244227789
 H         -5.8147466500       -0.4513952205        0.7779489378
 H         -6.8868798493       -0.9825217946        2.0637627516
 C         -4.8659942567       -1.5839406454        2.3362200512
 H         -4.6139974605       -0.6641593548        2.8699275421
 H         -5.1430963336       -2.3377588482        3.0763627015
 C         -3.6085300227       -2.0628697910        1.5990193073
 H         -3.7384760500       -3.0909688065        1.2617014783
 H         -2.7666270670       -2.0245933698        2.2945868892
 H         -6.4441383723       -1.4093929927       -1.3023142542
 H         -6.6539201070       -3.1534808356       -1.4648840892
 H         -4.2589388262       -3.4606932705       -0.7384029733
 H         -4.5003145892       -2.6490243412       -2.2951257003
 O         -3.5281003959       -0.5456718712       -1.8355913337
 C         -2.7787203998        0.6078459214       -1.6635774301
 O         -2.6432822115        1.2921826334       -2.6997727911
 O         -1.9352122411        0.2000212851        1.8349804385
 C         -1.4229493650        2.1378910043       -0.2332925055
 C         -0.0173630680        1.7894772233        0.1960527691
 C          0.6747503744        2.4905500952        1.1746688954
 C          1.9692221888        2.1325872470        1.5102363133
 C          2.6006122468        1.0755517384        0.8817777721
 C          1.9235445652        0.3764512226       -0.1091687326
 C          0.6299587110        0.7419190691       -0.4477333038
 H          0.1053529222        0.1977001154       -1.2247465881
 N          2.5525431768       -0.7070384816       -0.7484996474
 S          4.0816276266       -0.4608239540       -1.3984435960
 O          4.2676453137        0.9125164568       -1.8068333242
 O          4.2183529889       -1.4629775216       -2.4330273715
 C          5.1859035089       -0.8558141103       -0.0590224615
 C          5.0623604968       -2.0930016726        0.5423444578
 C          5.9194141450       -2.4201821674        1.5808479148
 C          6.8818471814       -1.5114711854        1.9955420621
 C          6.9953011305       -0.2748799000        1.3789290826
 C          6.1403584624        0.0592584971        0.3400187479
 H          6.1866571117        1.0108528235       -0.1650632661
 H          7.7439649490        0.4300272934        1.7030083533
 H          7.5472429841       -1.7690963709        2.8043361146
 H          5.8336307104       -3.3805850455        2.0631773987
 H          4.3028674965       -2.7703507347        0.1887747526
 H          1.9596355876       -1.1836738148       -1.4125103478
 H          3.6050542051        0.7888555367        1.1467304308
 H          2.4922864720        2.6826219905        2.2774631186
 H          0.1994155069        3.3161248833        1.6781831500
 H         -1.3647854370        2.6006292946       -1.2301688320
 C         -2.1211866155        3.0964604408        0.7095297016
 C         -1.9598714212        4.5766714148        0.5431286142
 C         -3.2589703565        3.9197673406        0.1879460739
 H         -4.1138557918        4.0831431218        0.8268267170
 H         -3.5103974176        3.8105931622       -0.8574810858
 H         -1.9261603426        5.1949504048        1.4275048707
 H         -1.3322053248        4.9243963711       -0.2635933859
 H         -2.2107239010        2.6982330926        1.7135767759
