  62
        -98.93399423
 C         -2.1510526816       -0.9456461842        0.6372583506
 C         -3.2237488513       -0.7624598780       -0.2649816537
 C         -4.1051856853        0.4020280083       -0.0300859254
 C         -3.8322984606        1.2320522434        0.9927405880
 C         -4.5545048567        2.4887484939        1.4031504157
 C         -4.2612162479        3.6771617557        0.4754064741
 C         -4.3337144200        3.3581527763       -1.0150853307
 H         -4.0292407980        4.2551995162       -1.5607585346
 H         -3.6084487374        2.5764404224       -1.2483069951
 C         -5.7124522675        2.9445319917       -1.5246404600
 H         -5.6447824919        2.8701256089       -2.6128616641
 H         -6.4323566169        3.7314971446       -1.2899559142
 C         -6.2504711574        1.6133148745       -0.9936403095
 H         -6.6643124608        1.7226220851        0.0052371873
 H         -7.0799308860        1.3162926592       -1.6418045343
 C         -5.2438847541        0.4679850298       -1.0200735085
 H         -5.7865934370       -0.4770413897       -0.8995045183
 H         -4.7879575908        0.4111531490       -2.0149066278
 H         -3.2512613342        4.0345946398        0.6921539459
 H         -4.9617993062        4.4794870630        0.7136505527
 H         -5.6227469689        2.3034140115        1.4649057626
 H         -4.2009293729        2.7359941926        2.4067328279
 O         -2.7685662378        1.0294849505        1.8250215801
 C         -1.9210732116       -0.0486476074        1.6833133554
 O         -1.0199110715       -0.1095618220        2.5460669233
 H          1.3171464172       -1.1520354128        0.7803821239
 C          1.0711501732       -1.3534322311       -0.2522889979
 C         -0.1837691580       -1.8525553862       -0.5765463802
 C         -0.4891556940       -2.0820178056       -1.9138107753
 C          0.4446011428       -1.8129652701       -2.8979369877
 C          1.6929222994       -1.3142501829       -2.5722318873
 C          2.0093579091       -1.0833025749       -1.2378833726
 N          3.2890671297       -0.6206610398       -0.8836670702
 S          3.4670562062        0.4027911869        0.4462067806
 O          3.4035462229       -0.3844084313        1.6513270070
 O          2.5510407039        1.5177309584        0.3435925875
 C          5.1451488800        0.9476608489        0.1837984507
 C          5.3866114312        2.1950515620       -0.3592507381
 C          6.6976619210        2.5867115587       -0.5825256086
 C          7.7386458288        1.7277178365       -0.2643564091
 C          7.4806977524        0.4784335408        0.2806455364
 C          6.1727681387        0.0817454616        0.5083305763
 H          5.9233066003       -0.8740836447        0.9384802078
 H          8.2925008919       -0.1858185069        0.5293297519
 H          8.7575646143        2.0348124867       -0.4395801100
 H          6.9011670645        3.5584403040       -1.0027152434
 H          4.5455420746        2.8310055436       -0.5846127532
 H          3.8074268477       -0.2720370839       -1.6791216965
 H          2.4195398768       -1.1056931779       -3.3429012573
 H          0.1949066517       -1.9892938562       -3.9333364382
 H         -1.4711504537       -2.4406157790       -2.1766251934
 C         -1.1769066891       -2.1093337015        0.5321156319
 H         -0.6183475199       -2.1072971407        1.4786609869
 C         -1.8719839610       -3.4487037531        0.3887657205
 C         -1.1011223856       -4.6978720785        0.6871497803
 C         -2.1835927668       -4.2439969865        1.6188954463
 H         -3.1068774401       -4.8027653583        1.6505053188
 H         -1.8947502407       -3.8240830342        2.5719506976
 H         -1.2790696924       -5.5713137920        0.0791070526
 H         -0.0764028248       -4.5847041633        1.0087329684
 H         -2.5951265475       -3.4786333321       -0.4148939539
 O         -3.4692929104       -1.5281857597       -1.2339707636
