  62
        -98.93586120
 C          2.5437223979       -0.9685919011        0.5221078078
 C          2.5422129690        0.1739698205       -0.3162900967
 C          3.8468683910        0.5466803680       -0.8840700247
 C          4.9294543524       -0.2138321115       -0.6457288317
 C          6.3188862464        0.0283776916       -1.1697562208
 C          7.1362253271        1.0221971148       -0.3329932432
 C          6.7106402846        2.4853636710       -0.4619256155
 H          7.4956568433        3.0887043762       -0.0016954170
 H          6.6671157834        2.7578045808       -1.5168908529
 C          5.3728152498        2.8182941525        0.2133062445
 H          5.1127980271        2.0244650908        0.9174072189
 H          5.4765752703        3.7380585077        0.7932921038
 C          4.2075471702        3.0223753402       -0.7550662778
 H          4.3995570527        3.8972171513       -1.3801781276
 H          3.3055204306        3.2191158726       -0.1699131609
 C          3.9275572141        1.8215384707       -1.6684013455
 H          2.9594769837        1.9746844407       -2.1518277556
 H          4.6952172696        1.7471383077       -2.4383348539
 H          7.0873908510        0.7191303954        0.7155353629
 H          8.1770661267        0.9390695947       -0.6541710981
 H          6.8293122471       -0.9370820190       -1.1538976380
 H          6.2661109542        0.3762586085       -2.2018083737
 O          4.8745850833       -1.3436184731        0.1094791398
 C          3.6939003005       -1.7382941062        0.7168236708
 O          3.7924892276       -2.7854574625        1.3879751477
 H         -1.0628944371        0.0014778163        1.1480614905
 C         -0.9869215762       -0.7025668555        0.3339189835
 C          0.1402968743       -1.4987087905        0.2146096256
 C          0.2228296466       -2.3787638523       -0.8610738217
 C         -0.7919969538       -2.4511283048       -1.7955103066
 C         -1.9118948677       -1.6467800497       -1.6791695658
 C         -2.0039859445       -0.7651335288       -0.6114122131
 N         -3.1275861245        0.0739745095       -0.4999127748
 S         -4.6442266812       -0.6201205041       -0.7594221807
 O         -4.7465056199       -1.8710355179       -0.0402091882
 O         -4.8829966005       -0.6919025755       -2.1792046500
 C         -5.7090049303        0.6077546955       -0.0282126908
 C         -6.1236141807        0.4492447428        1.2806471220
 C         -6.9280372727        1.4229626698        1.8514555400
 C         -7.2987909034        2.5340966809        1.1090146729
 C         -6.8751363248        2.6787620078       -0.2037862940
 C         -6.0720602702        1.7081498821       -0.7812268132
 H         -5.7262857375        1.7737878519       -1.7996125544
 H         -7.1678165829        3.5428301190       -0.7782207760
 H         -7.9242838603        3.2908138362        1.5556513504
 H         -7.2617967511        1.3118190163        2.8706118519
 H         -5.8188561396       -0.4350734019        1.8172092045
 H         -3.1137732916        0.6175364666        0.3521941427
 H         -2.7130911046       -1.6928127959       -2.3992511804
 H         -0.7123613656       -3.1387795607       -2.6245799034
 H          1.1008586461       -3.0041259134       -0.9569396640
 C          1.2798874895       -1.4657276275        1.2033217081
 H          1.5030781670       -2.5080083372        1.4854203669
 C          0.9405137231       -0.7350616211        2.4941565694
 C          2.0257486977       -0.1860043830        3.3704394650
 C          1.0995975357        0.7462700109        2.6520461707
 H          0.3627783033        1.2808917823        3.2340912956
 H          1.4769128862        1.3020876952        1.8087301515
 H          1.9254825533       -0.2929098518        4.4400720127
 H          3.0430923962       -0.2735912838        3.0172498381
 H          0.0981719953       -1.1930745668        3.0044422973
 O          1.5218311892        0.8581130054       -0.5834857764
