  62
        -98.94967164
 C         -1.5002339397       -1.0598246705        0.0448469192
 C         -2.5259726697       -0.6436856707        0.9240014394
 C         -3.0681644196        0.6999367694        0.6881551298
 C         -2.5476646596        1.4556166797       -0.2965378300
 C         -3.0300023696        2.8275158598       -0.6679657096
 C         -4.1173877396        2.7644606902       -1.7498109696
 C         -5.2366954996        1.7700428501       -1.4412098898
 H         -5.9608717597        1.8322140404       -2.2562225198
 H         -4.8258771897        0.7579660001       -1.4508085401
 C         -5.9499466396        2.0132967198       -0.1039545597
 H         -5.7513705795        3.0280163996        0.2428745706
 H         -7.0272929596        1.9286861798       -0.2607710197
 C         -5.5820757596        1.0206771294        1.0003729600
 H         -6.2935630196        1.1456494092        1.8209660000
 H         -5.6899774596       -0.0003849805        0.6259910797
 C         -4.1741029796        1.1697454392        1.5912206700
 H         -4.0082060895        2.2054995891        1.8959978403
 H         -4.1190251896        0.5386788589        2.4834958698
 H         -3.6497860196        2.4729690504       -2.6929916697
 H         -4.5386823396        3.7637956202       -1.8734718292
 H         -3.4141099695        3.3231635695        0.2216998006
 H         -2.1788281496        3.3965019399       -1.0464373294
 O         -1.5460797397        1.0317451499       -1.1065127702
 C         -0.9932529797       -0.2278900702       -0.9525997506
 O         -0.0778413997       -0.4914610200       -1.7568448007
 H          0.4308377704       -0.5444824610        1.5994286793
 C          1.1081889003       -1.2687178509        1.1702601991
 C          0.6097575703       -2.3243963007        0.4175830087
 C          1.5107755602       -3.2410469706       -0.1113205316
 C          2.8717339502       -3.0870761107        0.0893119284
 C          3.3645102003       -2.0073453009        0.7989166588
 C          2.4709068103       -1.0901242410        1.3384988291
 N          2.9167985404        0.0493457487        2.0447604694
 S          2.6215760704        1.5244929390        1.2994753699
 O          3.2554724605        2.5095974187        2.1506240701
 O          1.2087174704        1.6896461291        1.0770726800
 C          3.5194417704        1.4074938994       -0.2378229102
 C          4.8078595104        1.9068118894       -0.2809817201
 C          5.5535568304        1.7448417397       -1.4367233302
 C          5.0044277103        1.0773108800       -2.5215907904
 C          3.7122522003        0.5798554601       -2.4600087005
 C          2.9563567403        0.7418700297       -1.3080269504
 H          1.9461490603        0.3664640098       -1.2448691305
 H          3.2771874102        0.0604629103       -3.2987908806
 H          5.5852478803        0.9446166503       -3.4207409804
 H          6.5576305504        2.1343382197       -1.4868347201
 H          5.1899840805        2.4199606791        0.5869096401
 H          3.8948653604        0.0060764986        2.2997277594
 H          4.4269825903       -1.8707500210        0.9337614288
 H          3.5579844602       -3.8075588706       -0.3284758418
 H          1.1458150301       -4.0760221604       -0.6868244518
 C         -0.8828740798       -2.4336819906        0.2249491588
 H         -1.3229652297       -2.8343075108        1.1510903887
 C         -1.2705463598       -3.3375351802       -0.9286863315
 C         -1.4635761699       -4.8083587202       -0.7133920519
 C         -2.6491741299       -3.9242659401       -0.9528069916
 H         -3.1651456599       -3.9924649598       -1.8987906116
 H         -3.2964459898       -3.6959069304       -0.1184702015
 H         -1.1677578199       -5.4875778300       -1.4986973522
 H         -1.3142071399       -5.1921695906        0.2844712179
 H         -0.8510655398       -3.0061401099       -1.8722278614
 O         -2.9638584697       -1.3622741910        1.8649419792
