  62
        -98.93114427
 C         -2.0948121990       -0.6498428908        0.1933234809
 C         -2.3859236592        0.5928771195        0.8113747901
 C         -3.3293272894        1.4650063689        0.1047621396
 C         -3.8349980094        1.0756573680       -1.0794256601
 C         -4.7967900897        1.8567901773       -1.9333249805
 C         -6.2668990296        1.6914147472       -1.5238974203
 C         -6.6664818796        2.4019945580       -0.2300884407
 H         -6.3562289498        3.4461447980       -0.2794213514
 H         -7.7570435996        2.3876513978       -0.1806478106
 C         -6.1075942394        1.7574533689        1.0461604997
 H         -5.7748336092        0.7404850789        0.8259334203
 H         -6.9010028893        1.6799712993        1.7929347898
 C         -4.9533132595        2.5246015196        1.6915590491
 H         -4.6122226293        1.9615531902        2.5642454894
 H         -5.3069842396        3.4986695397        2.0368145284
 C         -3.7464262896        2.7422191092        0.7693587688
 H         -3.9755320598        3.5020025187        0.0222614683
 H         -2.9066433796        3.0902553498        1.3762961285
 H         -6.8778730498        2.0917322166       -2.3361183805
 H         -6.4865137494        0.6249420272       -1.4367235996
 H         -4.5284577299        2.9133986573       -1.9154658612
 H         -4.6791206697        1.4842577066       -2.9530494003
 O         -3.5049989592       -0.1072407723       -1.6577587194
 C         -2.6515483490       -1.0116218717       -1.0342889189
 O         -2.4867551188       -2.0617499321       -1.6783278582
 O         -1.8829520891        0.9551395904        1.9105447998
 C         -1.1343563187       -1.5807554501        0.9233351414
 C          0.0139688313       -1.9567812805        0.0208373915
 C          0.0899975115       -3.0923892410       -0.7773419777
 C          1.1942908314       -3.3147081113       -1.5822957877
 C          2.2476042112       -2.4214061311       -1.6133324284
 C          2.1744599011       -1.2666703206       -0.8420676591
 C          1.0670888011       -1.0471918103       -0.0389651792
 H          1.0266619910       -0.1431095799        0.5534203302
 N          3.2046318409       -0.3132063404       -0.8863051498
 S          3.5487726008        0.5875111506        0.4974588895
 O          3.5366437011       -0.2673520987        1.6630913001
 O          2.6774213106        1.7357068204        0.5323593089
 C          5.2171710607        1.1041251107        0.1360051990
 C          6.2729846909        0.3542916412        0.6196573094
 C          7.5674659608        0.7399505513        0.3089149691
 C          7.7832966105        1.8611668308       -0.4782365017
 C          6.7138604103        2.6048326803       -0.9548657921
 C          5.4169346404        2.2252839902       -0.6469845317
 H          4.5552655702        2.7766317598       -0.9860372920
 H          6.8853662300        3.4779504799       -1.5635577027
 H          8.7913807204        2.1594131508       -0.7190397720
 H          8.4007160309        0.1662021717        0.6813641494
 H          6.0567547411       -0.5036320184        1.2358037900
 H          4.0427408909       -0.6580213205       -1.3337013197
 H          3.1089886412       -2.6035945013       -2.2377248183
 H          1.2322999816       -4.2043028517       -2.1928630271
 H         -0.7217370384       -3.7958650112       -0.8061896072
 H         -0.7009909588       -0.9416201995        1.7104027109
 C         -1.8995813484       -2.6630503698        1.6757094322
 C         -2.6229040582       -3.8160042603        1.0495767430
 C         -1.4049573281       -4.0612125496        1.8894474330
 H         -1.5420978479       -4.5019522489        2.8658240033
 H         -0.4892652081       -4.3539911097        1.4013595131
 H         -3.5868350081       -4.0797470303        1.4618559832
 H         -2.5746173983       -3.9297341910       -0.0207594470
 H         -2.4125815384       -2.2100606093        2.5214428619
