  62
        -98.94475591
 C         -1.9243184810       -0.3631002191       -0.6884736823
 C         -2.9511957729       -1.2534504565       -0.2931905143
 C         -4.3155884097       -0.7110434746       -0.3146682228
 C         -4.5111489759        0.5592485398       -0.7135195914
 C         -5.8405649526        1.2555215695       -0.7305303261
 C         -6.1019525847        1.9843579996        0.5951023797
 C         -5.8607532124        1.1201519382        1.8328038668
 H         -4.7971553718        0.8792144277        1.8962839365
 H         -6.1046935635        1.7282941462        2.7065630763
 C         -6.6780829681       -0.1788144235        1.8692210654
 H         -7.5139897056       -0.1099771605        1.1722011163
 H         -7.0994191715       -0.2994003514        2.8694777262
 C         -5.8721298614       -1.4440993182        1.5696467185
 H         -6.4866212455       -2.3089829198        1.8332863723
 H         -4.9821958673       -1.4701295549        2.2034911630
 C         -5.4306225742       -1.6242488269        0.1116736006
 H         -5.0414894686       -2.6411400783        0.0059038831
 H         -6.2922678469       -1.5160272795       -0.5500669381
 H         -5.4400632905        2.8518849706        0.6489234039
 H         -7.1328691558        2.3430236938        0.5943515389
 H         -5.8359709604        1.9856529761       -1.5415610361
 H         -6.6255523362        0.5251284205       -0.9167596036
 O         -3.5017317168        1.3783851116       -1.1051342016
 C         -2.1829485720        0.9460911610       -1.0937593898
 O         -1.3584859731        1.8040035243       -1.4616287870
 O         -2.7350362860       -2.4423534599        0.0651772242
 C         -0.4878807036       -0.8553614822       -0.6802601370
 C          0.3500507919        0.0178760207        0.2195856849
 C         -0.0768888888        0.2280713631        1.5293838640
 C          0.6379269348        1.0414570683        2.3853510037
 C          1.8052146372        1.6520954020        1.9595534689
 C          2.2465328350        1.4420067006        0.6598021875
 C          1.5229098042        0.6242923009       -0.1997279342
 H          1.8823503159        0.4963257410       -1.2064147050
 N          3.4234289149        2.0552736673        0.1993392082
 S          4.5548769300        1.1626860902       -0.6479910079
 O          5.7620461305        1.9570251737       -0.5885216473
 O          4.0647778750        0.8460929640       -1.9643936626
 C          4.7529656563       -0.3210819861        0.3209538656
 C          5.5472674508       -0.2621402072        1.4497726039
 C          5.6534418921       -1.3843844879        2.2546403873
 C          4.9589624751       -2.5383163903        1.9238358338
 C          4.1673167968       -2.5814939687        0.7868273991
 C          4.0606579832       -1.4632724898       -0.0253372135
 H          3.4591614206       -1.4600011815       -0.9190751250
 H          3.6300188583       -3.4804844054        0.5296939993
 H          5.0364087332       -3.4103924918        2.5538274061
 H          6.2728382261       -1.3561648056        3.1365947915
 H          6.0779220068        0.6509764557        1.6658209280
 H          3.8748451223        2.6489966792        0.8798164481
 H          2.3622719690        2.2951984668        2.6238133366
 H          0.2875493515        1.2014764022        3.3938594506
 H         -0.9889685069       -0.2489034668        1.8615851552
 H         -0.5304548164       -1.8635220251       -0.2416146464
 C          0.0407838808       -0.9642705947       -2.0943148140
 C          1.0726587351       -1.9955574468       -2.4362832550
 C         -0.3358416427       -2.1545411808       -2.9228102468
 H         -0.5429395863       -2.0067557906       -3.9720886004
 H         -0.9553485266       -2.9068052041       -2.4566626987
 H          1.8422161001       -1.7386543146       -3.1495261757
 H          1.4007077255       -2.6514272043       -1.6437652351
 H          0.0888733342       -0.0057423768       -2.5997265870
