  62
        -98.94013377
 C         -2.4942973606       -1.1670144154       -0.0263441586
 C         -2.5722908820        0.0061982778       -0.8147162737
 C         -3.9213107995        0.5594739640       -1.0038722775
 C         -4.9758962032       -0.0683481409       -0.4524591349
 C         -6.3926952963        0.4230220113       -0.5112872959
 C         -6.7175191350        1.3198143580        0.6919058548
 C         -5.6798036297        2.4131792745        0.9468637265
 H         -6.0283538631        2.9991345174        1.8000840379
 H         -4.7356913000        1.9484663166        1.2406035032
 C         -5.4331374693        3.3458536266       -0.2471308755
 H         -6.2585974362        3.2672466787       -0.9554935041
 H         -5.4110187862        4.3766799217        0.1124822188
 C         -4.1125671123        3.1017440310       -0.9799006416
 H         -3.2897260028        3.0856397016       -0.2604564680
 H         -3.9384479200        3.9420267150       -1.6572569337
 C         -4.0428274858        1.8178593739       -1.8162650069
 H         -4.9046296659        1.7652121422       -2.4845565197
 H         -3.1359616543        1.8676753715       -2.4261464429
 H         -7.6958513752        1.7752583240        0.5284521423
 H         -6.7790952634        0.6923219805        1.5840288795
 H         -6.5429836734        0.9720849519       -1.4386414878
 H         -7.0579593962       -0.4418042024       -0.4988557481
 O         -4.8623946397       -1.2084187322        0.2765871410
 C         -3.6231381842       -1.7764456150        0.5206980136
 O         -3.6571829768       -2.8033438450        1.2289195382
 H          1.4010403508       -0.9312305218       -0.4340824168
 C          1.0133355611       -0.4669956812        0.4567408951
 C         -0.2454566996       -0.7921692401        0.9340194529
 C         -0.7039638474       -0.1652553161        2.0906951798
 C          0.0755753989        0.7680292640        2.7448669692
 C          1.3329746903        1.0905274953        2.2649181307
 C          1.7992307390        0.4728382743        1.1107804294
 N          3.0554756843        0.8110478155        0.5838444393
 S          3.9585679884       -0.3541460282       -0.2335941457
 O          3.4665982609       -0.4788814927       -1.5821690058
 O          4.0163799505       -1.5737601203        0.5413141680
 C          5.5519093164        0.4468442714       -0.2501820567
 C          6.5306122292        0.0463126075        0.6392846358
 C          7.7531436148        0.6998552879        0.6296089247
 C          7.9733159163        1.7391191165       -0.2615742251
 C          6.9812237258        2.1296073669       -1.1491349978
 C          5.7577534692        1.4791829828       -1.1463194292
 H          4.9606881262        1.7413643347       -1.8226053691
 H          7.1569254980        2.9363805228       -1.8423342415
 H          8.9249773953        2.2466573635       -0.2668442093
 H          8.5275722037        0.3965629861        1.3155741240
 H          6.3159808539       -0.7705221884        1.3094089087
 H          3.6255005749        1.3393974161        1.2299839255
 H          1.9429279074        1.8211972792        2.7740289535
 H         -0.2951824729        1.2460157610        3.6393299857
 H         -1.6861194508       -0.4216274048        2.4659740736
 C         -1.1430272596       -1.7990386065        0.2562099417
 H         -1.3308600106       -2.6191997484        0.9651592089
 C         -0.5549272368       -2.3803248690       -1.0116759656
 C          0.4381724273       -3.4992851389       -0.9331851528
 C         -0.9494508189       -3.7619389802       -1.4346364299
 H         -1.0896564753       -3.9589315514       -2.4868239369
 H         -1.6322670735       -4.3002675557       -0.7932770216
 H          1.2569648362       -3.5102366943       -1.6374044056
 H          0.7042579301       -3.8628940952        0.0481930678
 H         -0.4220717249       -1.6377464315       -1.7907845472
 O         -1.5711190154        0.5670279048       -1.3322463322
