  62
        -98.94451604
 C          1.9543846698        1.0974956793       -0.1699176027
 C          2.4411236958       -0.0471165190       -0.8458472666
 C          3.8948709357       -0.2475957225       -0.7861675916
 C          4.6702870991        0.6487678715       -0.1494832692
 C          6.1688568379        0.5934076311       -0.0253358710
 C          6.6670596606       -0.2863070159        1.1295566320
 C          6.5127142759       -1.7924236904        0.9141298134
 H          7.0933602984       -2.2885641018        1.6943831802
 H          6.9533983305       -2.0684408760       -0.0443242203
 C          5.0642479725       -2.2967717621        0.9810628895
 H          4.4374471792       -1.5435085941        1.4637658846
 H          5.0190687500       -3.1948615333        1.6011352857
 C          4.4527470782       -2.6518457368       -0.3744169161
 H          3.4151404907       -2.9563711854       -0.2137123576
 H          4.9892969012       -3.4985441003       -0.8084515789
 C          4.4547573030       -1.5004583768       -1.3885577913
 H          3.8129411980       -1.7812136677       -2.2273533679
 H          5.4640196990       -1.3283562011       -1.7620866443
 H          6.1433937881        0.0065779897        2.0424363724
 H          7.7281414749       -0.0681163536        1.2705659377
 H          6.5039624891        1.6174253457        0.1530122111
 H          6.6016231854        0.2445786088       -0.9632815071
 O          4.1640361183        1.7539710015        0.4600054556
 C          2.7993081017        1.9920376934        0.4866248820
 O          2.4674533901        3.0167752546        1.1165791902
 O          1.7064370895       -0.8590356942       -1.4660622874
 C          0.4637780502        1.3867971067       -0.1478220639
 C         -0.2784403541        0.1968360885        0.4095270803
 C          0.1285537723       -0.3274725526        1.6346257453
 C         -0.4989653817       -1.4319628972        2.1750614834
 C         -1.5576346877       -2.0299103833        1.5131596440
 C         -1.9788245940       -1.5100957451        0.2960615697
 C         -1.3444011102       -0.3985200709       -0.2450481948
 H         -1.6814874752       -0.0316707961       -1.1993089373
 N         -3.0398046397       -2.1077823611       -0.4026661886
 S         -4.2342413710       -1.1722891469       -1.1019652639
 O         -5.3130783083       -2.0998842692       -1.3612416214
 O         -3.7175106351       -0.4613598878       -2.2425491728
 C         -4.7106808762       -0.0313801014        0.1829900411
 C         -4.1946388491        1.2481823947        0.1914822499
 C         -4.5259615506        2.0957304870        1.2371118213
 C         -5.3616568154        1.6515955693        2.2498732136
 C         -5.8763117544        0.3640195841        2.2239985421
 C         -5.5457204556       -0.4889549084        1.1840077785
 H         -5.9333665152       -1.4928257957        1.1207071836
 H         -6.5304038218        0.0238300105        3.0105826021
 H         -5.6153419153        2.3146065217        3.0619416261
 H         -4.1286599995        3.0981335709        1.2574118870
 H         -3.5525753159        1.5593120113       -0.6157609619
 H         -3.4375396451       -2.9152154302        0.0543126205
 H         -2.0437054636       -2.8994750968        1.9287213927
 H         -0.1638688859       -1.8322030818        3.1201182453
 H          0.9576098284        0.1390113256        2.1499547225
 H          0.3290118150        2.2321698381        0.5427617783
 C         -0.0032776864        1.8060902768       -1.5257464345
 C         -1.1495995076        2.7586757300       -1.6765715688
 C          0.2462922691        3.2111394092       -1.9814763806
 H          0.5249900455        3.3770033410       -3.0112923565
 H          0.7318254889        3.8785904283       -1.2841627358
 H         -1.8371405427        2.6126144875       -2.4969233731
 H         -1.6067234780        3.1331944557       -0.7728557897
 H          0.1081033751        1.0195795397       -2.2638647610
