  62
        -98.93832161
 C          2.1908450249        0.8952207241       -0.0807903112
 C          2.9187225662        0.2219312088        0.9254142264
 C          3.7378884322       -0.9247171528        0.4944621920
 C          3.7424613975       -1.2807902039       -0.8040870137
 C          4.4396991137       -2.4169002719       -1.5234736681
 C          5.5650107564       -3.1972235923       -0.8489634813
 C          6.8424830461       -2.3946936612       -0.6045332205
 H          7.5337157071       -3.0187427785       -0.0339430986
 H          7.3076062004       -2.1798740384       -1.5698591655
 C          6.6574673442       -1.0652020396        0.1226862600
 H          7.6419104595       -0.6007603892        0.2256967897
 H          6.0483975218       -0.3946772368       -0.4869543027
 C          6.0429037567       -1.1625776565        1.5176062614
 H          6.1167169097       -0.1742814297        1.9794827174
 H          6.6211633328       -1.8597427519        2.1270489204
 C          4.5636024007       -1.5834180389        1.5619662370
 H          4.4581408425       -2.6649557093        1.5176551902
 H          4.1472587272       -1.2535825080        2.5185926030
 H          5.2127129999       -3.6441749223        0.0760541760
 H          5.8175765740       -4.0213816432       -1.5216583402
 H          3.6481765532       -3.1217036886       -1.8014405304
 H          4.8125919482       -1.9897835621       -2.4597646621
 O          2.9957260590       -0.6172646452       -1.7352758127
 C          2.2123663242        0.4781661125       -1.4104131830
 O          1.5993976988        0.9750529382       -2.3727279320
 H         -0.0393462122       -0.1213557038        0.8141546140
 C         -0.6646764558        0.6144920785        0.3221538352
 C         -0.1108270775        1.8373291016       -0.0377889010
 C         -0.9294502058        2.7765208909       -0.6506794981
 C         -2.2573722111        2.4851963258       -0.9123695057
 C         -2.7978337416        1.2601715547       -0.5692488963
 C         -1.9922527354        0.3176750449        0.0569279641
 N         -2.5316087849       -0.9345443022        0.4044873162
 S         -3.9327450009       -0.9528144299        1.3322830073
 O         -4.0293259100        0.2241060028        2.1645481054
 O         -3.9152058081       -2.2263628311        2.0185515768
 C         -5.2456401746       -0.9602619827        0.1300437312
 C         -5.2709360696       -1.9811456568       -0.7998343892
 C         -6.2911288043       -2.0067553771       -1.7371946668
 C         -7.2644340211       -1.0185490937       -1.7270720835
 C         -7.2266816451       -0.0022228865       -0.7847931804
 C         -6.2082648750        0.0298064424        0.1552142815
 H         -6.1349676749        0.8025445592        0.9037376016
 H         -7.9843987489        0.7647165905       -0.7785665260
 H         -8.0571078732       -1.0412242640       -2.4581160856
 H         -6.3236993011       -2.7954739984       -2.4715151198
 H         -4.4980257642       -2.7310793244       -0.7709006759
 H         -1.8505383623       -1.5741242774        0.7877475751
 H         -3.8289495635        1.0273335699       -0.7789663009
 H         -2.8793444548        3.2230895931       -1.3955194167
 H         -0.5273743857        3.7369989101       -0.9277402542
 C          1.3390601879        2.0925940735        0.2954378576
 H          1.4227351148        2.1790577454        1.3897617494
 C          1.8943093289        3.3526943374       -0.3350873830
 C          1.7191660721        4.6785231459        0.3414307191
 C          3.0673922937        4.0257156730        0.3100550192
 H          3.8329574204        4.4477769527       -0.3234935996
 H          3.4479632634        3.5900049862        1.2225726396
 H          1.5613943147        5.5533889982       -0.2710574523
 H          1.1860531330        4.6942883149        1.2801209658
 H          1.8694330069        3.3199262264       -1.4185538944
 O          2.8778977188        0.5549879959        2.1419328778
