  62
        -98.93837996
 C         -2.3986846475       -1.2494406578       -0.1036430857
 C         -3.2638981011       -0.6095461491        0.8215463623
 C         -4.0450088929        0.5339939094        0.3254652135
 C         -3.9064435867        0.9161426349       -0.9552406999
 C         -4.6202402182        2.0216119646       -1.6924399012
 C         -4.8172632535        3.3530361073       -0.9561538384
 C         -3.6805171162        3.7385995740        0.0018362844
 H         -2.8179915453        3.0876592451       -0.1557366924
 H         -3.3594706941        4.7581380357       -0.2204251593
 C         -4.0971498677        3.6880228038        1.4738080042
 H         -3.4032614534        4.3003853271        2.0546343198
 H         -5.0891774247        4.1342175378        1.5720380159
 C         -4.1090081067        2.2964255289        2.1050024239
 H         -3.0838053379        1.9307351584        2.2115577940
 H         -4.5228971125        2.3877706071        3.1120325203
 C         -4.9077283806        1.2287742589        1.3393342976
 H         -5.7999435651        1.6531874041        0.8858588260
 H         -5.2110937324        0.4593108829        2.0542670040
 H         -4.9240257734        4.1227898423       -1.7224059701
 H         -5.7549348386        3.3289070348       -0.4028515576
 H         -4.0280598420        2.1876967622       -2.5958437446
 H         -5.5951608753        1.6418988576       -2.0122011050
 O         -3.0639887926        0.2746435646       -1.8119335604
 C         -2.2837504651       -0.8008708439       -1.4179818008
 O         -1.5615579894       -1.2466211416       -2.3337012629
 O         -3.3896041522       -0.9905190502        2.0152177270
 C         -1.5722771318       -2.4124670278        0.4237033144
 C         -0.1751573937       -1.9274756540        0.7275986135
 C          0.2290640877       -1.7076728649        2.0396731544
 C          1.4871960160       -1.2012894490        2.3145765426
 C          2.3626987952       -0.8945434940        1.2881430281
 C          1.9626620801       -1.0985036736       -0.0257668708
 C          0.7101020994       -1.6265939971       -0.2981768315
 H          0.3991905620       -1.7592382601       -1.3237273863
 N          2.8367192467       -0.7534370015       -1.0786176759
 S          3.2764633330        0.8708788812       -1.1436160926
 O          2.2589896713        1.7185488633       -0.5630685734
 O          3.6163901817        1.1257092332       -2.5267049773
 C          4.7613488985        0.9389163331       -0.1624227821
 C          4.8262040591        1.7757487077        0.9343080171
 C          5.9937251119        1.8118923395        1.6811068460
 C          7.0693921160        1.0154380634        1.3192415688
 C          6.9889197256        0.1823483693        0.2130596463
 C          5.8253342632        0.1421647712       -0.5383013899
 H          5.7210235939       -0.4872722635       -1.4061883903
 H          7.8275776149       -0.4351684352       -0.0652612060
 H          7.9758343741        1.0442607296        1.9030101060
 H          6.0578563976        2.4591436564        2.5410149528
 H          3.9613982462        2.3710859383        1.1804783522
 H          2.4813385646       -1.0366361101       -1.9820374221
 H          3.3404846242       -0.4903691490        1.4938829196
 H          1.7873693567       -1.0377841484        3.3383306384
 H         -0.4618973226       -1.9170144822        2.8434862457
 H         -2.0450935221       -2.6901458432        1.3751774235
 C         -1.5785913464       -3.6227653018       -0.4870804778
 C         -1.1876316379       -4.9547802104        0.0772149426
 C         -2.6163193569       -4.6842271332       -0.2847786776
 H         -3.0312879202       -5.1693891289       -1.1554696367
 H         -3.3279538772       -4.5415261410        0.5152630567
 H         -0.6185079736       -5.6295909480       -0.5433962649
 H         -0.9299329569       -4.9958460583        1.1246040309
 H         -1.2918937131       -3.4022924445       -1.5069439696
