  62
        -98.94597869
 C         -1.5583846193       -1.3779134207       -0.7709856100
 C         -2.7737516695       -0.9639781112       -0.1644574199
 C         -3.2902210799        0.3478457087       -0.5617305497
 C         -2.6347494701        1.0650752190       -1.4914925096
 C         -3.0071082606        2.4380502190       -1.9790552394
 C         -2.4682835810        3.5575492490       -1.0772895893
 C         -3.2032383511        3.7244435186        0.2534729208
 H         -4.2773199511        3.7848041983        0.0721402608
 H         -2.8874539014        4.6809374786        0.6750534509
 C         -2.9111329307        2.6182428586        1.2775339606
 H         -2.7199161108        3.0703619985        2.2541646507
 H         -1.9959275405        2.0913951789        0.9924670605
 C         -4.0437044303        1.6069508781        1.4632854205
 H         -4.9144312805        2.1096122978        1.8911378505
 H         -3.7075089501        0.8480011282        2.1747267604
 C         -4.4756872201        0.8903182582        0.1771927404
 H         -5.0455246103        1.5671781581       -0.4588797595
 H         -5.1125280198        0.0461613679        0.4533019502
 H         -2.5445762913        4.4952913991       -1.6330915591
 H         -1.4093777909        3.3676710394       -0.8807781393
 H         -4.0905877706        2.5231006586       -2.0659689894
 H         -2.5657195507        2.5503828693       -2.9716319694
 O         -1.5239281900        0.6003461895       -2.1127547797
 C         -0.9169549096       -0.5865801103       -1.7226058298
 O          0.1545153405       -0.8048028499       -2.3230420699
 O         -3.3923879892       -1.6629522015        0.6832793900
 C         -0.9397094789       -2.6453437206       -0.2022922401
 C         -0.1834603990       -2.2570651305        1.0487475599
 C         -0.4513416088       -2.8546654907        2.2730620598
 C          0.1786680110       -2.4081140407        3.4218751299
 C          1.0558925107       -1.3409216004        3.3729268001
 C          1.3367650105       -0.7401176301        2.1487915901
 C          0.7493251306       -1.2302685602        0.9936298401
 H          0.9723009105       -0.7662082300        0.0474167101
 N          2.2080072301        0.3529727602        2.0767825003
 S          2.0477031397        1.5776844003        0.9400467705
 O          2.5024690093        2.7646398003        1.6372268106
 O          0.7168188497        1.6404718799        0.3874957405
 C          3.2750883298        1.1452057409       -0.2749572396
 C          2.9253065100        0.6400427409       -1.5093941797
 C          3.9329597401        0.2973560014       -2.3998881797
 C          5.2616309101        0.4645314618       -2.0451912197
 C          5.5967106199        0.9770317517       -0.8002281296
 C          4.5966417398        1.3198069713        0.0932604004
 H          4.8107415396        1.7324112412        1.0651574505
 H          6.6309900598        1.1080610721       -0.5257436896
 H          6.0386686001        0.1946220922       -2.7429737997
 H          3.6632489702       -0.1031397786       -3.3642212098
 H          1.8860541800        0.5045403706       -1.7685407597
 H          2.5088154900        0.7144007502        2.9695629503
 H          1.5151404005       -0.9645681704        4.2744605801
 H         -0.0380492688       -2.8765108709        4.3700276398
 H         -1.1785352985       -3.6509959810        2.3269444197
 H         -1.7846311387       -3.2780537409        0.1037312398
 C         -0.0663254586       -3.4360846501       -1.1513471602
 C          0.1350779619       -4.8997712601       -0.8993991604
 C         -0.6954954283       -4.4460556502       -2.0613164204
 H         -0.2983356082       -4.5540569200       -3.0590518004
 H         -1.7669580782       -4.5713940206       -2.0031653804
 H          1.1066816220       -5.3253125597       -1.0969641705
 H         -0.3741873080       -5.3383857604       -0.0547428005
 H          0.7708544712       -2.8729807498       -1.5410104402
