  62
        -98.93538388
 C         -2.3117453404       -0.8829176914       -0.3543882128
 C         -2.9736065561       -0.0638373993        0.5928622396
 C         -3.1721410987        1.3569169358        0.2537687666
 C         -2.7021927427        1.8063462128       -0.9242766532
 C         -2.7384702819        3.2073567466       -1.4767738744
 C         -1.7050543941        4.1310265530       -0.8154360588
 C         -1.6536038286        4.0458937712        0.7073654359
 H         -1.3993145637        3.0241318013        0.9966988325
 H         -0.8353095829        4.6870905663        1.0458455635
 C         -2.9250980076        4.4877890351        1.4290069248
 H         -3.1638609287        5.5126183883        1.1366173002
 H         -2.7028545031        4.4902843006        2.4990105970
 C         -4.1628691388        3.6146230193        1.2072165702
 H         -4.6378207087        3.8347694034        0.2548904503
 H         -4.8879403909        3.8753881119        1.9835497001
 C         -3.9110053518        2.1155648290        1.3301663337
 H         -3.3766519796        1.9142133396        2.2656261947
 H         -4.8759158948        1.6052709872        1.4355015267
 H         -0.7167200311        3.8586869015       -1.1954459090
 H         -1.9161196133        5.1578161671       -1.1203349927
 H         -2.5032759352        3.1283752002       -2.5406908261
 H         -3.7387696379        3.6208309735       -1.3872971591
 O         -2.0668700150        0.9855578458       -1.8074500179
 C         -1.8423460115       -0.3574100116       -1.5580050289
 O         -1.2469415256       -0.9403386595       -2.4865270752
 O         -3.3976099941       -0.5072960280        1.6959741007
 C         -2.0961352639       -2.3309886234        0.0477651475
 C         -0.7818762085       -2.4836877777        0.7779723603
 C         -0.7215329892       -3.1383990243        2.0027502007
 C          0.4785112243       -3.2545731164        2.6810297705
 C          1.6341845384       -2.7017809611        2.1609258884
 C          1.5850712815       -2.0497777606        0.9333588914
 C          0.3862596808       -1.9615952669        0.2414467171
 H          0.3688176163       -1.4555156986       -0.7123508772
 N          2.7402922734       -1.4815818232        0.3741613009
 S          2.5778344836       -0.0151951449       -0.4537673890
 O          1.5937094615        0.8161634841        0.2020910706
 O          2.3749004285       -0.2912777082       -1.8530439769
 C          4.2134875876        0.6599324184       -0.2196082057
 C          4.4356592540        1.5682461135        0.7978651188
 C          5.7188450051        2.0550386603        0.9938119578
 C          6.7529942532        1.6245998803        0.1763128136
 C          6.5145123350        0.7132126759       -0.8418381269
 C          5.2338543229        0.2238051119       -1.0439863678
 H          4.9967916243       -0.4776902910       -1.8268770550
 H          7.3198131141        0.3829785159       -1.4778260613
 H          7.7504575532        2.0042465050        0.3315013545
 H          5.9060383239        2.7662973821        1.7820134432
 H          3.5989361790        1.8786142763        1.4030788694
 H          3.5216509028       -1.4645947289        1.0157285397
 H          2.5679383263       -2.7710448593        2.6979907327
 H          0.5109493902       -3.7634397478        3.6323288650
 H         -1.6281703776       -3.5386025145        2.4315829883
 H         -2.8994467659       -2.5571629852        0.7634524516
 C         -2.1788750717       -3.3233448585       -1.0943456200
 C         -2.5491601072       -4.7449826599       -0.7992765837
 C         -3.5161213086       -3.8513468255       -1.5150827106
 H         -3.6947097813       -4.0132012615       -2.5672521949
 H         -4.3828215417       -3.4998350511       -0.9743320536
 H         -2.0615215240       -5.5279170510       -1.3591486093
 H         -2.7652172460       -5.0048016505        0.2257576843
 H         -1.4480774178       -3.1418812313       -1.8718017232
