  62
        -98.94573298
 C          0.9986472101        1.1946362509       -0.3678582431
 C          1.9557780198        1.2873400594        0.6748983610
 C          2.7395659293        0.0804495920        0.9534028293
 C          2.4907458439       -1.0458895387        0.2620293993
 C          3.1680574545       -2.3755038192        0.4581411735
 C          4.5052593244       -2.5127237029       -0.2826996715
 C          5.6623512802       -1.7090990968        0.3117093876
 H          5.7450942299       -1.9275018292        1.3769060258
 H          6.5777493239       -2.0640539686       -0.1658636985
 C          5.5527364024       -0.1923445517        0.1023816476
 H          4.8259891318        0.0150365962       -0.6862512179
 H          6.5145373599        0.1989027501       -0.2366526475
 C          5.1604407854        0.5941713202        1.3532940095
 H          5.9453263837        0.5004755117        2.1071552506
 H          5.0777432278        1.6499281998        1.0828883884
 C          3.8281830745        0.1618750872        1.9804141396
 H          3.9435064701       -0.7956788911        2.4888247267
 H          3.5332527198        0.9133129058        2.7172650648
 H          4.3576300562       -2.2221343654       -1.3251766151
 H          4.7796136982       -3.5700331359       -0.2664215342
 H          3.3185382311       -2.5541904578        1.5235418791
 H          2.4819041470       -3.1338822917        0.0745994838
 O          1.5497752024       -1.1068163700       -0.7132378653
 C          0.7899760004        0.0029005201       -1.0637156631
 O         -0.0123792711       -0.2250151152       -1.9893403562
 H         -1.4763030418        0.3169229123       -0.1898310116
 C         -1.8511626474        1.2274356625        0.2475177076
 C         -1.1407963292        2.4091288136        0.1062671365
 C         -1.6647758989        3.5695115664        0.6660931743
 C         -2.8626405035        3.5394642868        1.3569180697
 C         -3.5475553638        2.3493869296        1.5286155474
 C         -3.0312265752        1.1847428440        0.9743418078
 N         -3.6798026034       -0.0498477796        1.1258130236
 S         -2.7535257986       -1.4247944479        1.3720954391
 O         -3.6542941706       -2.3450718887        2.0389357889
 O         -1.5312165153       -1.1240640192        2.0835684737
 C         -2.3982861859       -2.0665251808       -0.2474849286
 C         -3.3139605433       -1.8996108256       -1.2662329943
 C         -3.0365240056       -2.4490167712       -2.5070747879
 C         -1.8607553469       -3.1555057885       -2.7049703567
 C         -0.9555606826       -3.3192743534       -1.6693989292
 C         -1.2260890664       -2.7716336148       -0.4267228418
 H         -0.5390789259       -2.8557166605        0.4016218840
 H         -0.0339154278       -3.8564203559       -1.8274130835
 H         -1.6423808133       -3.5740086050       -3.6748931506
 H         -3.7341867232       -2.3174964640       -3.3187047930
 H         -4.2125617375       -1.3347748557       -1.0805323392
 H         -4.4973847430       -0.0382110439        1.7185195807
 H         -4.4682985009        2.3187672037        2.0909132108
 H         -3.2582613533        4.4476557332        1.7854468030
 H         -1.1196623635        4.4964963305        0.5709697302
 C          0.1724846797        2.4370021830       -0.6429458045
 H          0.7620060827        3.2735882937       -0.2416892968
 C         -0.0796799063        2.6914022225       -2.1173625842
 C         -0.2636599818        4.0951652293       -2.6067752944
 C          0.9873899119        3.3418975413       -2.9437606702
 H          1.1329974601        2.9990153207       -3.9568117255
 H          1.9025974331        3.6236300093       -2.4431687357
 H         -0.9828361055        4.2744378716       -3.3908774771
 H         -0.1899724420        4.8952529043       -1.8863140830
 H         -0.6648073683        1.9111302092       -2.5864852629
 O          2.1484326468        2.3406589392        1.3421915714
