  62
        -98.93375487
 C          2.5910323190        1.1569198216        0.1358019905
 C          3.1789827393        0.3072466018        1.1068650704
 C          4.0854876799       -0.7277536677        0.6016775404
 C          4.3155839102       -0.8218908973       -0.7204969496
 C          5.2268406208       -1.8125361667       -1.3927673196
 C          4.5733978616       -3.1750823870       -1.6617634899
 C          4.3508642618       -4.0453089373       -0.4241168001
 H          4.0920033924       -5.0452526574       -0.7778220103
 H          5.2846466318       -4.1289412070        0.1327665400
 C          3.2366248214       -3.5488034681        0.5079980798
 H          2.6044559011       -2.8353288283       -0.0261238302
 H          2.5992303018       -4.3887469985        0.7935613895
 C          3.7336699608       -2.8987422281        1.7994769700
 H          2.8648279606       -2.5528619586        2.3657519599
 H          4.2561900811       -3.6413192179        2.4066936799
 C          4.6662127702       -1.6992455075        1.5845264304
 H          5.6459378405       -2.0396095070        1.2501633905
 H          4.7823887298       -1.1796982176        2.5388986305
 H          3.6194821216       -3.0106820174       -2.1681324601
 H          5.2254412020       -3.7190396265       -2.3489478799
 H          6.1262414408       -1.9504426664       -0.7920800194
 H          5.5116325308       -1.3722532964       -2.3506693994
 O          3.7348371499        0.0106955225       -1.6212256595
 C          2.8388196893        0.9999172720       -1.2295995895
 O          2.3598920192        1.6409065919       -2.1792977795
 O          2.9539735690        0.4091720114        2.3443660204
 C          1.6155809784        2.2155208310        0.6367145305
 C          0.2479749286        1.9082621304        0.0787620902
 C         -0.3054853414        2.4388968803       -1.0800840298
 C         -1.5554548411        2.0291780797       -1.5137590201
 C         -2.2793459008        1.0766262192       -0.8217119104
 C         -1.7350937307        0.5269948093        0.3315725296
 C         -0.4908104210        0.9517180599        0.7712086899
 H         -0.0697955309        0.5155496400        1.6690157199
 N         -2.4390527703       -0.4677197512        1.0310391793
 S         -4.0604351305       -0.2180329621        1.3826881290
 O         -4.3605079613        1.1874769977        1.5277016492
 O         -4.3285791103       -1.0546049624        2.5319722288
 C         -4.9144715299       -0.8840896423       -0.0302701313
 C         -4.6518797391       -2.1902952621       -0.3939181114
 C         -5.3149559687       -2.7268449022       -1.4859195116
 C         -6.2265486889       -1.9538206126       -2.1896715017
 C         -6.4825432597       -0.6455006028       -1.8090878315
 C         -5.8217142002       -0.1024108226       -0.7181753413
 H         -5.9847065508        0.9115450272       -0.3890407611
 H         -7.1922222099       -0.0467234931       -2.3570599515
 H         -6.7407441186       -2.3740519227       -3.0395649318
 H         -5.1186733181       -3.7439618521       -1.7848018418
 H         -3.9391598189       -2.7582945918        0.1806096086
 H         -1.9468536103       -0.8258098211        1.8366356893
 H         -3.2490611405        0.7553508588       -1.1648559607
 H         -1.9666546512        2.4555646497       -2.4162314801
 H          0.2431531683        3.1491186707       -1.6713772596
 H          1.5544740283        2.0168269808        1.7188577504
 C          2.1898144876        3.6216275313        0.5362398208
 C          2.3825053374        4.4187912117       -0.7173152090
 C          1.3617720770        4.8475529210        0.2933473709
 H          1.5689340565        5.7269096310        0.8850846811
 H          0.3172506972        4.7126537704        0.0607853507
 H          3.2923819172        4.9971667122       -0.7974594087
 H          2.0718106078        3.9898958617       -1.6548625291
 H          2.9883849574        3.7316386116        1.2669059910
