  62
        -98.94070465
 C         -1.7363931225       -0.3540627166        0.4661019381
 C         -2.9229494356       -0.5017934224        1.2288826027
 C         -4.1572778081       -0.7269529838        0.4690788599
 C         -4.1132550587       -0.7688727350       -0.8747422261
 C         -5.2816136474       -1.0091122250       -1.7920286214
 C         -6.1015161805        0.2508209252       -2.1021937901
 C         -6.9677081726        0.7636188354       -0.9509393433
 H         -7.6473808410        1.5090454549       -1.3686943762
 H         -7.5784979643       -0.0531375707       -0.5649948812
 C         -6.1779677218        1.4060015915        0.1980788678
 H         -5.1699681565        1.6504752898       -0.1452763167
 H         -6.6537170316        2.3461649258        0.4864333153
 C         -6.0767282299        0.5451806092        1.4573759806
 H         -5.4664352776        1.0795465449        2.1900866511
 H         -7.0713014796        0.4051653020        1.8866800010
 C         -5.4439794366       -0.8339943849        1.2305318636
 H         -5.2182061548       -1.2713367112        2.2062608555
 H         -6.1425050387       -1.4868249928        0.7074341288
 H         -6.7569391832        0.0138049371       -2.9434313249
 H         -5.4194960134        1.0408809670       -2.4249874027
 H         -4.8681816227       -1.3892709526       -2.7286026237
 H         -5.9330175066       -1.7717465890       -1.3642246156
 O         -2.9586739193       -0.6070685669       -1.5717249313
 C         -1.7477276690       -0.3726018607       -0.9296811232
 O         -0.7918056334       -0.2062522060       -1.7086718026
 H          2.1388524257        0.0256823663        0.2360765974
 C          1.6113406895        0.9616766011        0.1679803416
 C          0.3011362206        1.0615567414        0.6051419826
 C         -0.3510704891        2.2860071075        0.4761188104
 C          0.2858091927        3.3709737517       -0.0915400561
 C          1.5990820307        3.2684252201       -0.5178128241
 C          2.2627524531        2.0570891835       -0.3825255680
 N          3.5945247524        1.9088979005       -0.8011288572
 S          4.6663282163        1.1072856632        0.2040909042
 O          4.3320109243        1.3017159607        1.5962256457
 O          5.9740182848        1.5757162888       -0.2044449820
 C          4.5187339581       -0.6134195664       -0.2260973934
 C          4.4879620604       -0.9676514732       -1.5601289524
 C          4.4214109146       -2.3109736607       -1.8933238262
 C          4.3943683014       -3.2720631108       -0.8940319042
 C          4.4283284303       -2.8998689313        0.4412899868
 C          4.4919003825       -1.5575953730        0.7811624803
 H          4.5107001455       -1.2227979792        1.8062037726
 H          4.4038584068       -3.6482176247        1.2176173477
 H          4.3426392931       -4.3170318739       -1.1566143183
 H          4.3899264136       -2.6045843821       -2.9301814401
 H          4.5099069521       -0.1947288090       -2.3099805215
 H          4.0094662708        2.7393945037       -1.1981848893
 H          2.1021170849        4.1174986211       -0.9556623913
 H         -0.2384266182        4.3093613305       -0.1953611221
 H         -1.3740819868        2.3706524989        0.8181541382
 C         -0.4449106076       -0.0953202315        1.2202913390
 H         -0.7756795366        0.2183844288        2.2255413437
 C          0.4221194672       -1.3297841450        1.4181467010
 C         -0.1791194999       -2.7020511373        1.4520845785
 C          0.6990050409       -2.2975186066        0.3080529120
 H          1.6871022299       -2.7285930417        0.2401692190
 H          0.2430239060       -2.0992033872       -0.6487787052
 H          0.2034777134       -3.4100968561        2.1715964237
 H         -1.2417893520       -2.7875901063        1.2772647451
 H          1.2337414625       -1.1440362896        2.1161176896
 O         -2.9484429147       -0.4445324092        2.4872619094
