  62
        -98.94055367
 C          1.3766195440        1.5419383237       -0.3879732741
 C          2.6042079786        1.3751660405        0.3012589667
 C          3.4277049880        0.2236399006       -0.0952379260
 C          2.9880445170       -0.5970108794       -1.0643712476
 C          3.6872832210       -1.8020793961       -1.6394620171
 C          4.2820799940       -2.8105040207       -0.6412487357
 C          3.5978964133       -2.8637464247        0.7330586159
 H          2.6450666523       -2.3335615228        0.7012035401
 H          3.3877090691       -3.9057661495        0.9816523013
 C          4.4614251446       -2.2800155343        1.8546976220
 H          5.4935929081       -2.6072089748        1.7111032560
 H          4.1209965434       -2.6879813397        2.8094871953
 C          4.4321757455       -0.7568925169        1.9781864106
 H          5.1802063316       -0.4639322370        2.7189059806
 H          3.4599684421       -0.4340924202        2.3602201940
 C          4.6988845821        0.0151811201        0.6759667866
 H          5.0617557939        1.0111649498        0.9438485261
 H          5.4563118124       -0.4812479689        0.0735962425
 H          4.2273692373       -3.7939039867       -1.1110285663
 H          5.3398172137       -2.5933362973       -0.4966428636
 H          2.9401434926       -2.2951544306       -2.2648100816
 H          4.4801688945       -1.4494888110       -2.3048572682
 O          1.8026329125       -0.4007122247       -1.7020678247
 C          0.9635112694        0.6538727273       -1.3809578470
 O         -0.0856751299        0.6818280726       -2.0517160029
 O          2.9992738630        2.1610697817        1.2026572316
 C          0.4777449971        2.6940545558        0.0334403410
 C         -0.6993311683        2.0902216813        0.7567421463
 C         -0.6044535366        1.8141349325        2.1176901403
 C         -1.6258518978        1.1573733394        2.7792103030
 C         -2.7534804269        0.7403200260        2.0928275919
 C         -2.8499134109        1.0013396121        0.7329280643
 C         -1.8424003932        1.6949872625        0.0782750587
 H         -1.9304486522        1.8817142424       -0.9798641701
 N         -3.9685431510        0.5306811637        0.0102918062
 S         -4.1761864827       -1.1333360354        0.0183213758
 O         -5.0501032841       -1.4176648528       -1.0975787071
 O         -4.6593722125       -1.5334063873        1.3167238906
 C         -2.5601588770       -1.8330107017       -0.2655084214
 C         -1.7733023009       -2.1832967915        0.8130953223
 C         -0.5094376475       -2.6990817968        0.5779917528
 C         -0.0584345102       -2.8582950886       -0.7229598459
 C         -0.8591232215       -2.4976288418       -1.7946373362
 C         -2.1204654680       -1.9742215947       -1.5658220027
 H         -2.7715649094       -1.6848753654       -2.3750169786
 H         -0.5005067623       -2.6091471257       -2.8051349717
 H          0.9246350817       -3.2646670533       -0.9024256944
 H          0.1195299891       -2.9751814221        1.4098777144
 H         -2.1633155965       -2.0566100459        1.8096279790
 H         -3.9693503006        0.8534276594       -0.9478117038
 H         -3.5480783807        0.2008816117        2.5826210970
 H         -1.5405048014        0.9579641329        3.8367175276
 H          0.2907194818        2.1067968721        2.6482942418
 H          1.0663346141        3.2756872184        0.7549628452
 C          0.0953025207        3.5939688424       -1.1219888973
 C         -0.5121275198        4.9331278701       -0.8324069559
 C          0.8838961905        4.8434860008       -1.3694324752
 H          1.0647859374        5.1437557135       -2.3907094400
 H          1.7038939419        5.0589886777       -0.7002738767
 H         -1.2918714050        5.2988360784       -1.4829112390
 H         -0.6403091864        5.2072985931        0.2038575467
 H         -0.2572333697        3.0559453674       -1.9929989117
