  62
        -98.94474441
 C         -2.5577767952       -0.1479529670       -0.3511795306
 C         -2.1427339521       -0.7032445046        0.8837544133
 C         -1.7025019293       -2.1048935603        0.8394160365
 C         -1.7012089594       -2.7591292907       -0.3357894264
 C         -1.2716389053       -4.1849561797       -0.5285026837
 C          0.2136177973       -4.2901498221       -0.8969416169
 C          1.1417984630       -3.5058811601        0.0307094068
 H          2.1668969338       -3.7096959906       -0.2890252499
 H          0.9762988440       -2.4349306711       -0.1097377803
 C          0.9937395861       -3.8442400557        1.5206533396
 H          0.4998563778       -4.8103239510        1.6368169780
 H          1.9912725951       -3.9326606983        1.9557969041
 C          0.2473108657       -2.7836468963        2.3328778302
 H          0.4312319483       -2.9729004159        3.3941311798
 H          0.6527403382       -1.7973900602        2.0938937926
 C         -1.2731360766       -2.7374674304        2.1327187886
 H         -1.6911070470       -3.7424836560        2.2291154416
 H         -1.6944482079       -2.1107230680        2.9242193292
 H          0.3479932100       -3.9091944556       -1.9124258534
 H          0.4945566174       -5.3454897935       -0.8884094616
 H         -1.4688969189       -4.7407647254        0.3863152530
 H         -1.8666978571       -4.6119907134       -1.3382196100
 O         -2.0852701649       -2.1842852917       -1.5063980339
 C         -2.5006270979       -0.8641070974       -1.5446254314
 O         -2.8010389558       -0.4509006103       -2.6859642882
 H         -0.4224457300        1.0317783553       -0.9968958659
 C         -0.5960356590        1.9038456367       -0.3797610085
 C         -1.8902963151        2.2101700991        0.0246026769
 C         -2.0864223168        3.3524846277        0.7887697729
 C         -1.0121990216        4.1488523366        1.1519664593
 C          0.2772234873        3.8150380301        0.7821368031
 C          0.4821086994        2.6752916561        0.0128804578
 N          1.8031815767        2.2741311540       -0.3207666185
 S          2.0860097728        0.6392243386       -0.5501795301
 O          1.7989299160        0.2283204834       -1.9122764663
 O          1.4240167229       -0.0789749521        0.5062958708
 C          3.8487953884        0.6027441870       -0.2847166869
 C          4.7107115631        0.4477066207       -1.3524498454
 C          6.0773288880        0.4541310486       -1.1184848929
 C          6.5555863318        0.6176837164        0.1723912231
 C          5.6775295366        0.7705230302        1.2355026551
 C          4.3111197090        0.7636541310        1.0075202213
 H          3.5893948362        0.8708332610        1.8007215821
 H          6.0523642810        0.8948791501        2.2386533375
 H          7.6190822761        0.6236406022        0.3519605280
 H          6.7615646430        0.3319150559       -1.9427017634
 H          4.2925418581        0.3175934976       -2.3378305406
 H          2.2547810184        2.8458892677       -1.0194791253
 H          1.1196256472        4.4170445090        1.0819772832
 H         -1.1833778386        5.0336571582        1.7459751772
 H         -3.0822504078        3.6179340878        1.1048358916
 C         -3.0102108799        1.2995003008       -0.4187801570
 H         -3.2108281898        1.5037410493       -1.4820098506
 C         -4.2908520440        1.4953217001        0.3664910250
 C         -5.2962896402        2.5189413062       -0.0659018194
 C         -5.5862723498        1.0602816014       -0.2478620537
 H         -6.3268147565        0.5953070394        0.3851674011
 H         -5.5449809945        0.6484926918       -1.2461855569
 H         -5.8439224028        3.0561538572        0.6936547361
 H         -5.0707632867        3.1017868580       -0.9462546580
 H         -4.1557586692        1.3209183435        1.4275584731
 O         -2.1618788483       -0.0678856961        1.9701754825
