  62
        -98.93989880
 C         -2.6356015099       -0.1985187287        0.5521288708
 C         -2.1656865691        0.2479307244       -0.7092814643
 C         -1.9793045930        1.7006844232       -0.8489061620
 C         -2.2327220344        2.5062442672        0.1969502759
 C         -2.0873134478        4.0001081429        0.1904733077
 C         -0.6978056552        4.4432282772        0.6654374866
 C          0.4605448354        3.7239026986       -0.0265726869
 H          1.3850691063        4.1736131267        0.3436373991
 H          0.4765552199        2.6744914724        0.2764169654
 C          0.4395742805        3.8012879713       -1.5591516347
 H         -0.1938062731        4.6290304283       -1.8827644533
 H          1.4528767708        4.0090002635       -1.9096699862
 C         -0.0114050155        2.5139539315       -2.2534350498
 H          0.5353518450        1.6612572591       -1.8389871479
 H          0.2558029723        2.5862160910       -3.3117997004
 C         -1.5136196642        2.2089763819       -2.1835785885
 H         -2.0831020709        3.0929200962       -2.4812972829
 H         -1.7215340649        1.4071739183       -2.8984956733
 H         -0.6084971701        5.5190325940        0.5005809138
 H         -0.6221639841        4.2555794146        1.7389862841
 H         -2.2714664065        4.3684445412       -0.8170747871
 H         -2.8392019836        4.4172055903        0.8632668277
 O         -2.6411677825        2.0388058313        1.4051461593
 C         -2.8185940837        0.6822380183        1.6196181611
 O         -3.1395159114        0.3881275614        2.7900508793
 O         -1.9315438013       -0.5146818232       -1.6820347889
 C         -2.8258924708       -1.6784449097        0.8526597997
 C         -1.6136249313       -2.4216818184        0.3494015789
 C         -1.6461438533       -3.4538506820       -0.5780614129
 C         -0.4694398317       -4.0086784134       -1.0526419821
 C          0.7605738849       -3.5417214600       -0.6242401444
 C          0.7990486280       -2.5302555280        0.3224212566
 C         -0.3764267870       -1.9941482053        0.8152689865
 H         -0.3334998235       -1.1824710328        1.5332411512
 N          2.0614890186       -1.9851880761        0.7202592701
 S          2.2902266257       -0.4972734273       -0.0619139350
 O          1.5288166597        0.5396041317        0.6040449469
 O          2.0471272098       -0.6881138329       -1.4679795824
 C          4.0331624297       -0.2330371952        0.2083506687
 C          4.9155512735       -1.1178252595       -0.3812336831
 C          6.2742126440       -0.9503301314       -0.1693608861
 C          6.7255819253        0.0943803368        0.6241479424
 C          5.8279487049        0.9746781678        1.2080000073
 C          4.4665861844        0.8105591027        1.0014389578
 H          3.7314139442        1.4707141929        1.4335443726
 H          6.1808006290        1.7867875905        1.8231511784
 H          7.7837873680        0.2239607519        0.7875642117
 H          6.9756475393       -1.6324607886       -0.6220108753
 H          4.5166608030       -1.9087952955       -0.9940665875
 H          2.0729781064       -1.7886736253        1.7141931102
 H          1.6825346111       -3.9348748413       -1.0199370867
 H         -0.5125953132       -4.7983966928       -1.7872858029
 H         -2.5932074402       -3.7964592050       -0.9623121736
 H         -2.8310520784       -1.7438743313        1.9538422738
 C         -4.1469920343       -2.2624267476        0.3783617519
 C         -5.3657620624       -1.3990960103        0.2506373555
 C         -4.7189998113       -1.9684678889       -0.9744325775
 H         -5.2286865240       -2.7649450050       -1.4967441818
 H         -4.1608336706       -1.3093678436       -1.6197217316
 H         -6.3154499131       -1.8020700147        0.5688843215
 H         -5.2505921653       -0.3426940513        0.4469617638
 H         -4.3077257396       -3.2628159937        0.7685554204
