  62
        -98.93530331
 C         -1.7612159517       -0.6560098749       -0.0650161741
 C         -2.9161564910       -1.1671436737        0.5799509995
 C         -4.2218996355       -0.7307725361        0.0563980020
 C         -4.2531250906        0.1388371659       -0.9676329308
 C         -5.4638159046        0.7578771132       -1.6093698293
 C         -5.7890895470        2.1132755007       -0.9588730838
 C         -6.6915941096        2.0373886307        0.2720388248
 H         -6.7370658807        3.0401155186        0.7032856230
 H         -7.7030647122        1.7697072596       -0.0408519427
 C         -6.2392194107        1.0561211074        1.3565637657
 H         -6.7156046358        1.3505542696        2.2937557030
 H         -5.1607438255        1.1410920062        1.5024210661
 C         -6.6120920424       -0.4011501792        1.0461478653
 H         -7.1278027271       -0.8333585057        1.9062419900
 H         -7.3223986501       -0.4190721492        0.2197304167
 C         -5.4278418370       -1.3261438309        0.7305354097
 H         -5.0414205761       -1.7516731643        1.6620533437
 H         -5.7843579015       -2.1680763077        0.1273907012
 H         -6.2801029347        2.7484465255       -1.6990351028
 H         -4.8433860691        2.5932785221       -0.6935649249
 H         -5.2078753421        0.9279707746       -2.6573240454
 H         -6.3141365218        0.0840917816       -1.5614356817
 O         -3.1221023276        0.6312224621       -1.5399287661
 C         -1.8544126687        0.2585476377       -1.1153626551
 O         -0.9356394044        0.8055915406       -1.7522220180
 H          1.6017120751       -0.1101976620       -1.0811807865
 C          1.4681660998        0.4562069603       -0.1725710129
 C          0.4748099706        0.0919806602        0.7227600605
 C          0.3051174718        0.8573703403        1.8721432315
 C          1.1115296201        1.9530669805        2.1219629647
 C          2.1045978826        2.3110081284        1.2263281124
 C          2.2692436839        1.5623491436        0.0707225235
 N          3.3083010817        1.9078841063       -0.8303308506
 S          4.8178323730        1.4004046760       -0.3084737099
 O          5.1624199048        2.1324481621        0.8830758666
 O          5.7094408516        1.5485176011       -1.4363120727
 C          4.5868811248       -0.3260005232        0.0791910918
 C          4.7495293917       -1.2622001422       -0.9223197475
 C          4.4662092265       -2.5909569432       -0.6503367018
 C          4.0134531764       -2.9558605013        0.6085479511
 C          3.8529982718       -2.0030546183        1.6031344024
 C          4.1396530954       -0.6735914727        1.3382782299
 H          4.0270037658        0.0965740147        2.0837424653
 H          3.4964409699       -2.2891057200        2.5796567862
 H          3.7829584900       -3.9892351868        0.8162416557
 H          4.5913070264       -3.3353686976       -1.4203528687
 H          5.1028918519       -0.9360071458       -1.8875976826
 H          3.1437289182        1.5528320753       -1.7625172236
 H          2.7573737267        3.1493754205        1.4078829198
 H          0.9679371069        2.5326640929        3.0212851888
 H         -0.4715416590        0.5823433490        2.5724830842
 C         -0.4136254222       -1.0987220563        0.4782806355
 H         -0.6532236768       -1.5509483848        1.4539467476
 C          0.2818029315       -2.1782331903       -0.3387951198
 C         -0.5057401039       -3.2905404510       -0.9612419788
 C          0.1749717909       -2.2773866672       -1.8298040942
 H          1.0515008453       -2.5839124102       -2.3821979876
 H         -0.4310823304       -1.5490733406       -2.3456836607
 H         -1.5816438513       -3.2459609482       -0.8741702406
 H         -0.1045643337       -4.2917416858       -0.9236186890
 H          1.2415004090       -2.4458625764        0.0936771202
 O         -2.8584231386       -1.9541302545        1.5622250234
