  62
        -98.93312259
 C         -1.0700929783       -1.5498887261        0.4150088685
 C         -2.4318762719       -1.7754995631        0.0702913509
 C         -3.4142432796       -0.8058721487        0.5736874024
 C         -3.0068694822        0.1652908826        1.4089529599
 C         -3.8901070480        1.2405333107        1.9720588381
 C         -3.9442110725        2.4761141602        1.0625139350
 C         -4.1987566935        2.1518820318       -0.4095522305
 H         -4.2233679019        3.0992315510       -0.9524703258
 H         -3.3596686906        1.5719235704       -0.7995384855
 C         -5.4991788680        1.3796664560       -0.6704416732
 H         -6.1609194597        1.4625878949        0.1924947535
 H         -6.0147940296        1.8343983611       -1.5187639037
 C         -5.2938400882       -0.0973581457       -1.0103264982
 H         -4.5625756096       -0.1905583344       -1.8167300971
 H         -6.2419461732       -0.4969650408       -1.3797509940
 C         -4.8460899464       -0.9891299056        0.1540973688
 H         -5.5149549346       -0.8437697221        1.0052715225
 H         -4.9284799557       -2.0302882139       -0.1713956670
 H         -4.7290693468        3.1392659645        1.4311759845
 H         -2.9928173923        3.0072500518        1.1458122131
 H         -4.8923716945        0.8367504028        2.1074356812
 H         -3.4938784770        1.5328103685        2.9461939725
 O         -1.7246816146        0.2627925791        1.8383532296
 C         -0.7430809979       -0.6308688555        1.4168251728
 O          0.3294045767       -0.5011773636        2.0359408238
 H          1.4371083836       -0.2339555089       -0.3755681448
 C          2.0164341134       -1.0580629836        0.0080850389
 C          1.3933173730       -2.2725364096        0.2683946861
 C          2.1516369422       -3.3028896908        0.8120515096
 C          3.4956796481       -3.1256828448        1.0879584912
 C          4.1096012827       -1.9172866199        0.8198575713
 C          3.3630960525       -0.8741199137        0.2828805263
 N          3.9816699015        0.3460188225       -0.0499920216
 S          3.3518286817        1.8021843308        0.4947372613
 O          4.3993964209        2.7581401595        0.1925813506
 O          2.9509486536        1.7443629411        1.8803068423
 C          1.9676069831        2.1273537655       -0.5700113642
 C          2.1936441300        2.1812462109       -1.9317633538
 C          1.1279325262        2.4472199269       -2.7759038876
 C         -0.1351190603        2.6624143253       -2.2448847690
 C         -0.3410503882        2.6131373401       -0.8749255532
 C          0.7184741190        2.3413765200       -0.0240127247
 H          0.5976940692        2.2638114006        1.0455418070
 H         -1.3237726508        2.7793266644       -0.4644868645
 H         -0.9665833557        2.8692104947       -2.9001188302
 H          1.2829341507        2.4850999984       -3.8420345404
 H          3.1920810796        2.0136231439       -2.3000465873
 H          4.9822088849        0.3440646534        0.0950892348
 H          5.1594584149       -1.7745424925        1.0292265508
 H          4.0692218344       -3.9348081327        1.5144010124
 H          1.6798659080       -4.2522460076        1.0230443025
 C         -0.0327332296       -2.5288086410       -0.1309169112
 H         -0.3193949852       -3.5218783787        0.2587900219
 C         -0.1420227313       -2.6576721779       -1.6559965454
 C          0.6832887304       -1.9123864026       -2.6573563333
 C          0.9020730131       -3.3807968682       -2.4518014797
 H          0.5799298953       -4.0695425494       -3.2181668718
 H          1.8047588103       -3.6799617466       -1.9400202791
 H          0.1893376911       -1.5876680254       -3.5613757337
 H          1.4538583765       -1.2396140671       -2.3173245821
 H         -1.1678001557       -2.8501775258       -1.9437608656
 O         -2.8257071169       -2.7613673052       -0.6088276178
