  62
        -98.93737780
 C         -2.3557853802        0.4156516911        0.3564812961
 C         -3.1006666094       -0.7725349733        0.1497703829
 C         -4.3311751025       -0.6194618578       -0.6420346403
 C         -4.6594858535        0.5771670127       -1.1589228237
 C         -5.8657416633        0.8784266135       -2.0062419190
 C         -7.1428563354        1.1493752575       -1.1990309692
 C         -7.7714871826       -0.0805754887       -0.5426926209
 H         -8.7658437290        0.2126028786       -0.1999875130
 H         -7.9027957512       -0.8628812112       -1.2908296645
 C         -6.9820395026       -0.6348939659        0.6514807690
 H         -6.2771985488        0.1215471969        1.0046565419
 H         -7.6676282439       -0.8423002320        1.4762998913
 C         -6.2176600463       -1.9267017423        0.3615773898
 H         -5.6661024354       -2.2080286989        1.2622644703
 H         -6.9250443185       -2.7277859021        0.1362835906
 C         -5.2147561534       -1.8209361661       -0.7945765288
 H         -5.7415458988       -1.7878050704       -1.7478096768
 H         -4.5760712782       -2.7072367734       -0.7761586842
 H         -6.9206161962        1.8973102289       -0.4342389896
 H         -7.8750725475        1.5829546281       -1.8840900503
 H         -5.6248725487        1.7753014151       -2.5810059819
 H         -6.0407436270        0.0567771162       -2.7012576470
 O         -3.8912943355        1.6852846626       -0.9774620454
 C         -2.7451794477        1.6349041136       -0.2046508752
 O         -2.1592766548        2.7317807068       -0.0889311373
 O         -2.7756374319       -1.9045073378        0.5864638097
 C         -1.0869723339        0.4678264523        1.1916003281
 C          0.1257491892        0.1368703902        0.3623115104
 C          0.2029013245       -1.0374911879       -0.3803276003
 C          1.3382723442       -1.3302959594       -1.1139618626
 C          2.4165707914       -0.4617367365       -1.1239649186
 C          2.3438507221        0.7174858012       -0.3965981149
 C          1.2041208915        1.0091504063        0.3384927455
 H          1.1536660708        1.9335260528        0.8996267100
 N          3.4585702668        1.5932557191       -0.3941158338
 S          4.6951258374        1.0849043734        0.6360361158
 O          4.1545748048        0.4745307639        1.8307567448
 O          5.5365312704        2.2438861043        0.8365467575
 C          5.5619828647       -0.1294178049       -0.3306490784
 C          5.4569412445       -1.4664618699       -0.0017224343
 C          6.1246701084       -2.4002163755       -0.7786857319
 C          6.8800716028       -1.9820996212       -1.8637922167
 C          6.9767118267       -0.6346390992       -2.1790162546
 C          6.3117218088        0.3042117052       -1.4067155532
 H          6.3627601885        1.3607598954       -1.6109832466
 H          7.5660583594       -0.3142019830       -3.0230061379
 H          7.3973631285       -2.7112796129       -2.4672202020
 H          6.0507126777       -3.4480394015       -0.5358679953
 H          4.8552165675       -1.7446846139        0.8485380937
 H          3.2058771895        2.5403245128       -0.1443835655
 H          3.3011099407       -0.6820066441       -1.6990257047
 H          1.3848610243       -2.2456833694       -1.6838320295
 H         -0.6355515737       -1.7174455337       -0.3692075334
 H         -0.9942372235        1.5217507830        1.5005109631
 C         -1.1750833240       -0.3583027236        2.4682108533
 C         -0.4287566580       -1.6334776222        2.7010162501
 C         -0.0151172061       -0.3871392637        3.4202615270
 H         -0.2102494842       -0.3054351535        4.4789983005
 H          0.9038540126        0.0871167099        3.1050067108
 H         -0.9342264898       -2.4115114160        3.2522883459
 H          0.2147095498       -2.0034675156        1.9192444275
 H         -2.1631589995       -0.2971098151        2.9141497766
