  62
        -98.94493962
 C          2.2000944019        0.9955852197        0.5331145996
 C          2.2804322214        0.1505842176       -0.6006040114
 C          3.0530685960       -1.0850346008       -0.4183036266
 C          3.5916537718       -1.3685204246        0.7814736742
 C          4.3870648363       -2.5979569106        1.1279968462
 C          5.8720104045       -2.5075762275        0.7499782592
 C          6.1701904057       -2.6025814253       -0.7468554276
 H          7.2474138902       -2.7473772390       -0.8495700123
 H          5.6821426288       -3.4869593253       -1.1576734768
 C          5.7598261059       -1.3636350028       -1.5550114524
 H          5.6041894059       -0.5213533309       -0.8770752119
 H          6.5709981614       -1.0850348322       -2.2312361140
 C          4.5042553452       -1.5497668499       -2.4071658130
 H          4.2837505562       -0.6026094828       -2.9057810977
 H          4.6912560418       -2.3006067353       -3.1780197361
 C          3.2593128533       -1.9663023904       -1.6129040629
 H          3.3382234206       -3.0098091963       -1.3076999140
 H          2.3838770206       -1.8576072478       -2.2585765269
 H          6.2756530478       -1.5719363042        1.1435893929
 H          6.3857712085       -3.3295047567        1.2537678219
 H          3.9399735048       -3.4701232458        0.6497067404
 H          4.3141232215       -2.7203252875        2.2109364576
 O          3.4497346726       -0.5513336215        1.8597490363
 C          2.7641299542        0.6497635232        1.7599551723
 O          2.7158305329        1.3033858608        2.8226653924
 O          1.7369838238        0.4108715730       -1.7048855133
 C          1.4380353604        2.3060329883        0.4455977087
 C          0.0018091140        2.0335550716        0.0673906825
 C         -0.6720900593        2.7152320972       -0.9366943998
 C         -1.9837079070        2.3939888687       -1.2421654124
 C         -2.6520438675        1.3991532331       -0.5529988699
 C         -1.9897671225        0.7163284248        0.4591030783
 C         -0.6779287951        1.0416960897        0.7641514376
 H         -0.1610486042        0.5047196272        1.5514015213
 N         -2.6646620495       -0.2894788445        1.1769095366
 S         -3.3760481316       -1.5289670261        0.2909021605
 O         -3.4350482802       -2.6543133918        1.1992381071
 O         -2.6929102954       -1.7498126919       -0.9625780519
 C         -5.0294246971       -0.9383918904       -0.0054070973
 C         -5.8047430451       -0.6005292945        1.0866292118
 C         -7.0954743235       -0.1433405768        0.8744862312
 C         -7.5870567874       -0.0353815650       -0.4180876640
 C         -6.7971947128       -0.3821532435       -1.5035250956
 C         -5.5044727558       -0.8391990493       -1.2983819132
 H         -4.8509081532       -1.1148186770       -2.1107868102
 H         -7.1809424887       -0.2979380996       -2.5075466729
 H         -8.5918744738        0.3212633266       -0.5804915445
 H         -7.7126783689        0.1270774328        1.7159917288
 H         -5.3852709235       -0.7032687086        2.0734735689
 H         -2.1157920497       -0.6769930997        1.9313529992
 H         -3.6708462766        1.1422964823       -0.7928807403
 H         -2.4924517127        2.9260357417       -2.0314515304
 H         -0.1671649032        3.4899450840       -1.4896630342
 H          1.4485971243        2.7331515487        1.4592145506
 C          2.1443155109        3.2603862449       -0.4943049567
 C          2.0242155974        4.7408799757       -0.2975858577
 C          3.3131621278        4.0450425048        0.0181731360
 H          4.1584813857        4.1980305228       -0.6358535831
 H          3.5837550283        3.9094368672        1.0555246119
 H          1.9875529841        5.3758784736       -1.1697973757
 H          1.4216423218        5.0880594426        0.5279615500
 H          2.2034667924        2.8782708748       -1.5069227451
