  62
        -98.93667239
 C          1.2359123507        0.9915355139        0.2112301889
 C          1.6100431986       -0.1924225607        0.8887288934
 C          2.6711371500       -0.9848638240        0.2601762208
 C          3.1750174920       -0.5995088987       -0.9260910391
 C          4.2372384817       -1.3198380764       -1.7118619763
 C          5.6715903253       -1.0006805548       -1.2679758045
 C          6.0917763275       -1.6129985613        0.0688306591
 H          5.8801702083       -2.6826865518        0.0586901445
 H          7.1742821490       -1.4954435234        0.1485509122
 C          5.4333395818       -0.9673836482        1.2959296833
 H          5.0142197342        0.0017088781        1.0157241481
 H          6.1911165492       -0.7808933612        2.0601404328
 C          4.3353209016       -1.8114464459        1.9430283750
 H          3.9139512643       -1.2453000941        2.7775580861
 H          4.7673259767       -2.7310906897        2.3437050937
 C          3.1872147739       -2.1843838888        0.9957868340
 H          3.5112778569       -2.9508682095        0.2916201962
 H          2.3638207988       -2.5878112043        1.5908762132
 H          6.3425301056       -1.3783585633       -2.0429729130
 H          5.7898613641        0.0844669885       -1.2256316560
 H          4.0660259995       -2.3955700753       -1.6554139571
 H          4.1194944464       -1.0054941229       -2.7512751185
 O          2.7438507537        0.5123538656       -1.5785218721
 C          1.7694074604        1.3377835202       -1.0305067045
 O          1.4710288414        2.3152544725       -1.7393758982
 O          1.0751505270       -0.5717996194        1.9666486805
 C          0.1510349255        1.8722711693        0.8174804017
 C         -0.9929959124        1.9745903505       -0.1654050521
 C         -1.6807737334        3.1095818099       -0.5740119590
 C         -2.7368954821        3.0112404258       -1.4671249850
 C         -3.1537351118        1.7910536142       -1.9612344721
 C         -2.4751437823        0.6443223671       -1.5626145829
 C         -1.4157944952        0.7508737137       -0.6806649860
 H         -0.8819193560       -0.1458619634       -0.4088913663
 N         -2.8425638607       -0.6214896298       -2.0384523862
 S         -2.6005942044       -1.9866824164       -1.1079459477
 O         -1.2026601521       -2.3392811515       -1.0799613747
 O         -3.4849632860       -2.9705021728       -1.6972674500
 C         -3.1940465867       -1.5557879169        0.5188650591
 C         -4.5534346558       -1.3458690216        0.6550197227
 C         -5.0578206692       -0.9758844582        1.8902511168
 C         -4.1968408194       -0.8174240068        2.9660553931
 C         -2.8372265414       -1.0377771234        2.8152248169
 C         -2.3262068210       -1.4118958552        1.5815599476
 H         -1.2690138623       -1.5814058539        1.4446073282
 H         -2.1598901791       -0.9162499777        3.6456334331
 H         -4.5862989101       -0.5236070532        3.9279666542
 H         -6.1161306543       -0.8095878239        2.0103967066
 H         -5.1910409019       -1.4911287182       -0.2018200862
 H         -3.7013330754       -0.6568386073       -2.5662113091
 H         -3.9780806844        1.7230985581       -2.6539030128
 H         -3.2478702760        3.9101619150       -1.7773741030
 H         -1.4034659941        4.0875509074       -0.2265252931
 H         -0.2343955785        1.2848322551        1.6697762180
 C          0.8150533544        3.0994076517        1.4236705061
 C          1.0498741268        4.4008024276        0.7243683878
 C          0.1100858885        4.3371375839        1.8930416201
 H          0.4403315367        4.7730695078        2.8246404407
 H         -0.9508051394        4.4270245477        1.7300519679
 H          2.0087492022        4.8787649907        0.8653447276
 H          0.6672419958        4.5108781780       -0.2768404276
 H          1.6296913705        2.7668528811        2.0647923068
