  62
        -98.94455260
 C         -2.6155408110       -1.2476190186        0.1274833903
 C         -2.6484786964       -0.2966244397       -0.9210146845
 C         -3.4852094926        0.8905650497       -0.6877194149
 C         -4.1620311977        1.0128673826        0.4677642741
 C         -4.9987041782        2.1965031708        0.8555825602
 C         -4.1704227077        3.2350450285        1.6249235931
 C         -2.8466534674        3.5968718967        0.9505377398
 H         -2.3675696887        4.3631350868        1.5640921936
 H         -2.1860756590        2.7259175852        0.9596479635
 C         -2.9857266628        4.1108638424       -0.4892186271
 H         -4.0118797757        4.4329109654       -0.6707874594
 H         -2.3433814776        4.9856460255       -0.6108948616
 C         -2.5724623243        3.1047314905       -1.5651381257
 H         -1.5791307613        2.7093885310       -1.3325087310
 H         -2.4950782702        3.6379591896       -2.5167184605
 C         -3.5302437628        1.9250387643       -1.7770449907
 H         -4.5471709005        2.2980303765       -1.9135431290
 H         -3.2262519906        1.4111205982       -2.6936271460
 H         -4.7745455056        4.1357759715        1.7473906917
 H         -3.9488522420        2.8359067967        2.6173154794
 H         -5.4218601122        2.6455510470       -0.0407411622
 H         -5.8108840066        1.8476774216        1.4954920723
 O         -4.1206453201        0.0738866576        1.4458679957
 C         -3.3417819439       -1.0606490119        1.3089918316
 O         -3.3840716113       -1.8280682094        2.2909032036
 H         -0.0108727505       -1.1790733680       -1.4930942160
 C          0.4298113050       -1.4635591787       -0.5493167541
 C         -0.3323716038       -2.1654534441        0.3737321652
 C          0.2391145195       -2.4866707408        1.5997263119
 C          1.5399448707       -2.1142359116        1.8899604273
 C          2.2934056319       -1.4080200324        0.9690790089
 C          1.7265935104       -1.0722534463       -0.2530807445
 N          2.4755648015       -0.3275942459       -1.1866752571
 S          3.0514995258        1.1591278120       -0.6492270910
 O          2.2205110463        1.6998411117        0.4028531150
 O          3.1967419109        1.9709962405       -1.8378775761
 C          4.6701212248        0.7718754609       -0.0153349546
 C          4.9934294120        1.0800556791        1.2914066809
 C          6.2618530841        0.7712175973        1.7583383253
 C          7.1790452687        0.1637737648        0.9145033026
 C          6.8392712380       -0.1370267646       -0.3962938671
 C          5.5736361282        0.1700023593       -0.8694275406
 H          5.2698052757       -0.0425392411       -1.8807567091
 H          7.5553500635       -0.6092290173       -1.0494124612
 H          8.1646422912       -0.0765082905        1.2807918473
 H          6.5276713295        1.0045008109        2.7769126273
 H          4.2449950506        1.5465976762        1.9121483903
 H          1.9888722191       -0.2059564666       -2.0645511322
 H          3.3035829109       -1.1056852087        1.1928342858
 H          1.9701746607       -2.3716484760        2.8458530354
 H         -0.3539877706       -3.0131297593        2.3337327539
 C         -1.7716761185       -2.5144999174        0.0783108587
 H         -2.1387270353       -3.1450729524        0.8986942760
 C         -1.9198479971       -3.2833971729       -1.2193539314
 C         -1.5147974341       -4.7252976906       -1.2550495355
 C         -2.9646314218       -4.3518133545       -1.3206779596
 H         -3.4885749110       -4.4713952759       -2.2570972200
 H         -3.5792752879       -4.5341590527       -0.4510310878
 H         -1.0405705904       -5.1048825228       -2.1469650857
 H         -1.1458602932       -5.1625645206       -0.3396136857
 H         -1.7384708101       -2.6858689410       -2.1025299521
 O         -2.0232144160       -0.4084143588       -2.0106064988
