  62
        -98.93974301
 C         -2.2783588543       -0.9081207551        0.6464823442
 C         -3.4186125949       -0.8876308411       -0.1942899648
 C         -4.4110616983        0.1557438028        0.0992215551
 C         -4.2079578426        1.0171460597        1.1111089926
 C         -5.1355869136        2.1227226818        1.5370123844
 C         -4.9812021756        3.4159779113        0.7248368426
 C         -5.5264552276        3.3574478663       -0.7027286131
 H         -6.5527362622        2.9895757726       -0.6832230233
 H         -5.5545862904        4.3829015482       -1.0764956103
 C         -4.6894123336        2.5041459792       -1.6659795664
 H         -4.5454305255        3.0476423556       -2.6025123678
 H         -3.6976591144        2.3376380371       -1.2382432431
 C         -5.3100544602        1.1521188758       -2.0172938610
 H         -4.6168935272        0.6171793259       -2.6711158108
 H         -6.2409658101        1.3079842455       -2.5668524942
 C         -5.6025749636        0.2585178555       -0.8052504976
 H         -5.8313728430       -0.7464262802       -1.1678136110
 H         -6.4639316088        0.6379322232       -0.2563734676
 H         -3.9232386806        3.6881327303        0.7006149570
 H         -5.5143558230        4.2032932388        1.2628093149
 H         -6.1680289434        1.7766802411        1.4798791079
 H         -4.8987062039        2.3410575372        2.5805541801
 O         -3.1032174866        0.9617600679        1.9031329838
 C         -2.1185998800        0.0137780449        1.6860686336
 O         -1.1639434637        0.0828969135        2.4885094704
 O         -3.6267750974       -1.6888123316       -1.1426774196
 C         -1.1455624075       -1.9109197015        0.4901057215
 C         -0.2030880727       -1.4959321677       -0.6150471861
 C         -0.6040247119       -1.4771999596       -1.9470579108
 C          0.2813910901       -1.0913755631       -2.9363485951
 C          1.5763996250       -0.7205820018       -2.6205561925
 C          1.9892311515       -0.7420388805       -1.2931701164
 C          1.0978353026       -1.1280043655       -0.3017751887
 H          1.4216296301       -1.1204838505        0.7285291893
 N          3.3157316080       -0.4173617079       -0.9579925628
 S          3.6362566079        0.3745389636        0.4977873216
 O          3.5649730432       -0.5821021390        1.5731548124
 O          2.8067176883        1.5532379591        0.6178501892
 C          5.3376554120        0.8352134065        0.2255801723
 C          6.3091309541       -0.1401518793        0.3514914606
 C          7.6320435481        0.1973171968        0.1150269968
 C          7.9604311812        1.4971710820       -0.2411259707
 C          6.9752555587        2.4655528448       -0.3612047470
 C          5.6495239084        2.1341571030       -0.1275666825
 H          4.8507634706        2.8546765413       -0.2014366250
 H          7.2336001665        3.4758618079       -0.6347802967
 H          8.9910171689        1.7576872211       -0.4235085217
 H          8.4008970778       -0.5523192309        0.2101149516
 H          6.0070118510       -1.1334975065        0.6393446866
 H          3.8091519558        0.0238309833       -1.7228670303
 H          2.2652132085       -0.4194765116       -3.3953900882
 H         -0.0419443928       -1.0747977219       -3.9663036985
 H         -1.6182749042       -1.7496940875       -2.1940091012
 H         -0.5829807720       -1.8684361685        1.4333435206
 C         -1.6273898512       -3.3346048009        0.2858560421
 C         -0.6869158302       -4.4616487017        0.5835751195
 C         -1.8602881472       -4.2066262445        1.4806333178
 H         -2.6884834359       -4.8988456791        1.4591930572
 H         -1.6738194695       -3.7785790729        2.4553933908
 H         -0.7070761014       -5.3317152009       -0.0543414182
 H          0.2963391545       -4.2061748183        0.9505588846
 H         -2.3032623208       -3.4463308897       -0.5510131029
