  62
        -98.94500864
 C         -0.6743144301       -1.6459949792       -1.0893281100
 C         -1.9418469402       -1.9059134992       -0.5096600602
 C         -2.9614549700       -0.8655357690       -0.6719899601
 C         -2.6557242298        0.2650042711       -1.3324891397
 C         -3.5730345395        1.4352109613       -1.5628997895
 C         -3.6382904896        2.4047369410       -0.3746890393
 C         -4.4442587598        1.9062520208        0.8253711805
 H         -4.6194851698        2.7680848806        1.4727137507
 H         -5.4176053298        1.5468684310        0.4883941102
 C         -3.7421095301        0.8148015704        1.6455655603
 H         -2.6716403001        0.8200089103        1.4238163104
 H         -3.8396472702        1.0439975702        2.7099579503
 C         -4.2955982803       -0.5954511394        1.4376411198
 H         -3.6843203505       -1.2886941997        2.0213365097
 H         -5.3193409204       -0.6456545594        1.8172740696
 C         -4.2942103202       -1.0748034690       -0.0191374503
 H         -5.0763701200       -0.5657818187       -0.5826036003
 H         -4.5002310503       -2.1483926590       -0.0238554407
 H         -2.6202891896        2.6308624007       -0.0459558490
 H         -4.0904734494        3.3333707212       -0.7318136691
 H         -4.5762774296        1.0786668715       -1.7988300098
 H         -3.1821428893        1.9732197515       -2.4293812493
 O         -1.4409743796        0.4690559911       -1.9000005995
 C         -0.4101151298       -0.4574126291       -1.7714737096
 O          0.6472286103       -0.0969655191       -2.3188373193
 O         -2.2093222005       -2.9703225194        0.1127078794
 C          0.4154820497       -2.6696752295       -0.8190593901
 C          1.0647685196       -2.3399184500        0.5025334101
 C          1.2904586593       -3.3090362203        1.4723174399
 C          1.8236000892       -2.9595890607        2.7013888900
 C          2.1072613893       -1.6384747008        2.9989010304
 C          1.8838038196       -0.6625937305        2.0340466707
 C          1.4022890297       -1.0245069501        0.7867728205
 H          1.2498889400       -0.2614412299        0.0408212307
 N          2.1322068598        0.6945621894        2.2836566511
 S          1.1140142600        1.8420845897        1.6026071913
 O          1.2615189601        2.9999940394        2.4633088816
 O         -0.2347090000        1.3465433600        1.4540946810
 C          1.8331103403        2.2277228401        0.0228948215
 C          3.1999870704        2.1326258499       -0.1438118783
 C          3.7487269706        2.4857825702       -1.3654939381
 C          2.9284012908        2.9320787506       -2.3900251581
 C          1.5593414408        3.0282340707       -2.2037362783
 C          1.0043224806        2.6737356005       -0.9854433285
 H         -0.0594426995        2.7135516006       -0.8095296086
 H          0.9182396410        3.3637377911       -3.0029423083
 H          3.3569393910        3.2010960208       -3.3426540980
 H          4.8134016306        2.4068683100       -1.5167753480
 H          3.8069550902        1.7748565496        0.6714221617
 H          2.3754125897        0.9239121491        3.2363003512
 H          2.4877583992       -1.3614994312        3.9701861006
 H          1.9956982389       -3.7210232109        3.4469150398
 H          1.0232447792       -4.3355441202        1.2686772495
 H         -0.1120210704       -3.6293970594       -0.6966047604
 C          1.4133173499       -2.8347676993       -1.9539767800
 C          2.8113547899       -2.3043737295       -1.8986415596
 C          2.5694840597       -3.7792277695       -1.8037663601
 H          2.8370845997       -4.4044559893       -2.6419397602
 H          2.7082315495       -4.2462934298       -0.8405028402
 H          3.2263829801       -1.8978743494       -2.8076757595
 H          3.1188572799       -1.7771298198       -1.0092340594
 H          0.9278568500       -2.8073258590       -2.9238413701
