  62
        -98.92745824
 C         -2.3084657088       -0.7467397602        0.4188898984
 C         -3.6715369665       -1.1517461408        0.4543113395
 C         -4.7107920230       -0.1065947010        0.4762944783
 C         -4.3230376119        1.1785437837        0.5590078943
 C         -5.1723577089        2.4217636735        0.5462840242
 C         -5.7169861844        2.7566685056       -0.8510345335
 C         -6.2849167756        1.5675811391       -1.6211461383
 H         -6.5504167329        1.9178117428       -2.6221352121
 H         -5.5060624986        0.8121158664       -1.7381372275
 C         -7.5265528803        0.9268028591       -1.0053724848
 H         -8.3073774911        1.6835826526       -0.9031591952
 H         -7.8853562958        0.1733303616       -1.7111603613
 C         -7.3256892819        0.2459483845        0.3507119941
 H         -7.2937285862        0.9736442372        1.1572162591
 H         -8.2033816211       -0.3807802547        0.5333984843
 C         -6.1098751565       -0.6717005536        0.4258833483
 H         -6.2016325748       -1.3024190871        1.3181459309
 H         -6.1310352574       -1.3679834748       -0.4202050695
 H         -4.8987212924        3.1767346369       -1.4412850602
 H         -6.4845226489        3.5253096336       -0.7452957305
 H         -5.9826951033        2.3285700522        1.2635297807
 H         -4.5298905246        3.2413798831        0.8762008141
 O         -3.0090198416        1.5189847359        0.6522567838
 C         -1.9748211147        0.5929195013        0.6217471177
 O         -0.8590005620        1.1195648309        0.8029310698
 H          0.2909168715       -0.0869322358       -0.9920668776
 C          0.8222246071       -0.6264035727       -0.2218612292
 C          0.1451182112       -1.5384132130        0.5753844823
 C          0.8497643408       -2.1786484221        1.5887876731
 C          2.1918893809       -1.9149702651        1.7973588469
 C          2.8592842107       -1.0013105770        1.0027963179
 C          2.1621238874       -0.3403130667        0.0005519698
 N          2.8245306457        0.5925294693       -0.8146272330
 S          3.9216916271        1.6576176454       -0.1255966972
 O          3.6038786669        1.9737888297        1.2470945419
 O          3.9841747818        2.7731119415       -1.0457373132
 C          5.4644334270        0.7670120251       -0.2018471029
 C          6.2559172506        0.6653296811        0.9255118721
 C          7.4583315291       -0.0196967384        0.8422865200
 C          7.8470764191       -0.5873547828       -0.3612446472
 C          7.0427805529       -0.4737330977       -1.4854350242
 C          5.8404862044        0.2109499085       -1.4089891193
 H          5.1890373245        0.3234327284       -2.2593858178
 H          7.3480036699       -0.9164904570       -2.4198490868
 H          8.7821053220       -1.1213254732       -0.4234012173
 H          8.0846910494       -0.1078458077        1.7154544633
 H          5.9099671562        1.1175835779        1.8415672947
 H          2.2056229406        1.0850864706       -1.4422717749
 H          3.9006092499       -0.7779932843        1.1671309810
 H          2.7227324913       -2.4226481947        2.5881713940
 H          0.3346158367       -2.8858379281        2.2235040107
 C         -1.2952647316       -1.8868152819        0.3343804170
 H         -1.6070817871       -2.5936696395        1.1228157870
 C         -1.4738463645       -2.6683399926       -0.9739796205
 C         -0.5815335352       -2.5935226386       -2.1729599133
 C         -0.5676452659       -3.8156460158       -1.3064282818
 H         -1.0046321937       -4.7290414591       -1.6801303178
 H          0.2965794532       -3.9629764504       -0.6758949694
 H         -1.0508269051       -2.6550947077       -3.1441870200
 H          0.2890830146       -1.9589412000       -2.1482544379
 H         -2.5255289567       -2.8291710154       -1.1785766833
 O         -4.0211963443       -2.3629532370        0.4650427597
