  62
        -98.93773816
 C         -1.6310739372       -1.5229814285        0.3414683896
 C         -1.7727880043       -0.3441862729        1.1171035861
 C         -2.9455406282        0.5021432529        0.8386584478
 C         -3.7991645708        0.1284440186       -0.1302309360
 C         -5.0531667310        0.8294650423       -0.5768489492
 C         -4.7749175690        1.7695891721       -1.7614136858
 C         -4.3299067899        3.1775752182       -1.3690847462
 H         -4.0428843803        3.6967266856       -2.2864468433
 H         -5.1774820227        3.7162741363       -0.9403420314
 C         -3.1596597368        3.2320324325       -0.3838695160
 H         -2.4190529602        2.4810801299       -0.6627271611
 H         -2.6879558270        4.2120325661       -0.4794879609
 C         -3.5866723053        3.0201873426        1.0766103422
 H         -3.2016637716        3.8369732394        1.6911698152
 H         -4.6730023206        3.0749612200        1.1424021351
 C         -3.0975540709        1.7135304811        1.7179973117
 H         -3.7619833000        1.4564970273        2.5500612921
 H         -2.1039314333        1.8639167930        2.1516755674
 H         -4.0119590295        1.3018871437       -2.3890013182
 H         -5.6830159580        1.8550971704       -2.3616560355
 H         -5.5097964588        1.3648423494        0.2504387679
 H         -5.7397437585        0.0477513379       -0.9090562200
 O         -3.5923668088       -0.9776867111       -0.8939940160
 C         -2.5115502017       -1.8218513866       -0.6982202545
 O         -2.4702156093       -2.7699467365       -1.5059464709
 O         -0.9555242934       -0.0212842063        2.0203887057
 C         -0.4563605092       -2.4218839199        0.6889779689
 C          0.7412232446       -2.0806086245       -0.1633501625
 C          0.7369889162       -2.2825729945       -1.5393366401
 C          1.8394910064       -1.9384861197       -2.3008493400
 C          2.9646694248       -1.3884241429       -1.7102738427
 C          2.9741847299       -1.1764148739       -0.3387180047
 C          1.8677103577       -1.5239228228        0.4245185780
 H          1.8738080676       -1.3403317182        1.4904877685
 N          4.1115340230       -0.5958118503        0.2662401619
 S          4.4268885035        0.9950125641       -0.1602535983
 O          4.7733492647        1.0432433226       -1.5571934255
 O          5.4344802559        1.4531061805        0.7683023259
 C          2.8865315440        1.8449128838        0.1264066056
 C          2.6589032423        2.4134445297        1.3635130958
 C          1.4322688928        3.0060588714        1.6134292213
 C          0.4550785793        3.0083934027        0.6309055031
 C          0.6974857785        2.4272529107       -0.6035175997
 C          1.9235114073        1.8372829234       -0.8624421648
 H          2.1472850801        1.3782755869       -1.8118602203
 H         -0.0662623061        2.4261322601       -1.3653719708
 H         -0.5031568360        3.4615625516        0.8275596273
 H          1.2374329668        3.4554503926        2.5738985749
 H          3.4467294061        2.3916565906        2.0996255216
 H          4.0948604941       -0.6618942639        1.2750002003
 H          3.8247399199       -1.1005187475       -2.2928901599
 H          1.8235622270       -2.1001106228       -3.3682512892
 H         -0.1446485165       -2.6954803495       -2.0058000494
 H         -0.2032377752       -2.1702103543        1.7279194675
 C         -0.7718983595       -3.9024401976        0.6222657692
 C          0.0930321679       -4.8597305758        1.3840643976
 C         -1.3102038735       -4.5925998287        1.8377990296
 H         -2.0538829593       -5.3636511823        1.7040192915
 H         -1.4538011884       -3.9991864405        2.7291487938
 H          0.3168672229       -5.8168265115        0.9388541054
 H          0.9018309167       -4.4481158581        1.9689283784
 H         -1.1527242860       -4.2233186798       -0.3377719296
