  62
        -98.93528575
 C         -2.2309351701       -1.0362145079       -0.0383567954
 C         -3.0019861571       -0.4757239152        1.0103826875
 C         -3.9134040915        0.6332929866        0.6713005236
 C         -3.9467045370        1.0720014535       -0.6003114761
 C         -4.8193986770        2.1451840755       -1.1940499425
 C         -6.2660460822        1.6733324004       -1.4172490189
 C         -6.8636062721        0.8617562355       -0.2705289425
 H         -7.8373513947        0.4898261330       -0.5999722437
 H         -6.2324277043       -0.0082376190       -0.0800962892
 C         -7.0743201301        1.6305851701        1.0315859113
 H         -7.5725039672        0.9542380351        1.7308466410
 H         -7.7471225809        2.4708826029        0.8460598636
 C         -5.8090538106        2.1636812009        1.7065031809
 H         -6.0869023134        2.4772508784        2.7170803821
 H         -5.4392958158        3.0511219659        1.1998271144
 C         -4.6881996214        1.1405509839        1.8634879066
 H         -3.9369397956        1.5494253715        2.5503309194
 H         -5.0827851333        0.2503046160        2.3662654061
 H         -6.8883778949        2.5486147643       -1.6103971710
 H         -6.2804758159        1.0449067079       -2.3111198122
 H         -4.7913802569        3.0346239394       -0.5714534714
 H         -4.3845396173        2.4039890698       -2.1621153780
 O         -3.1679392560        0.5230855618       -1.5739205860
 C         -2.2987028807       -0.5288211869       -1.3353277796
 O         -1.6687138907       -0.8926013103       -2.3472604220
 O         -2.9473700961       -0.8999663011        2.1964258132
 C         -1.3345233350       -2.2076645775        0.3254876673
 C          0.0717112769       -1.7495282178        0.6151548570
 C          0.6902257516       -2.0531338808        1.8220125089
 C          1.9781521755       -1.6174037881        2.0818688085
 C          2.6758813462       -0.8770532577        1.1444475585
 C          2.0632456354       -0.5603459539       -0.0611741206
 C          0.7708844266       -0.9949118396       -0.3173583320
 H          0.2970741971       -0.7445767761       -1.2555112414
 N          2.7646084571        0.1801167037       -1.0293288354
 S          3.5100051776        1.6038335148       -0.5444170032
 O          2.8286023358        2.2026501968        0.5808074752
 O          3.6079869152        2.4110377284       -1.7409651889
 C          5.1432310451        1.0793065023       -0.0655177776
 C          5.8834764603        0.3498523739       -0.9754306440
 C          7.1593337740       -0.0606845554       -0.6238448278
 C          7.6718070894        0.2657717025        0.6230841078
 C          6.9174999539        1.0018500894        1.5238080168
 C          5.6397198125        1.4147669450        1.1788067571
 H          5.0141067296        1.9829541163        1.8487427204
 H          7.3175299589        1.2548942196        2.4925052999
 H          8.6650186235       -0.0555604403        0.8943643788
 H          7.7486679919       -0.6334346980       -1.3216413611
 H          5.4488734697        0.1194292661       -1.9337985697
 H          2.2359025881        0.3248679608       -1.8780460055
 H          3.6789828578       -0.5354281675        1.3407958628
 H          2.4452388303       -1.8580500913        3.0245405908
 H          0.1480056673       -2.6200994309        2.5644689882
 H         -1.7552071928       -2.5904250703        1.2687489918
 C         -1.3997280863       -3.3403162042       -0.6912804591
 C         -0.2559341107       -3.7480856507       -1.5661861361
 C         -0.6713532120       -4.6249142333       -0.4258076495
 H         -1.1698381785       -5.5579888552       -0.6398937363
 H         -0.0247401754       -4.6548711078        0.4382573362
 H         -0.4872385979       -4.0569161579       -2.5742979090
 H          0.6740042752       -3.2088115728       -1.4814787622
 H         -2.3882132129       -3.4253130749       -1.1321510939
