  62
        -98.93566321
 C          2.4413498278        1.0422602822        0.4001991678
 C          2.5497424135       -0.1631709063       -0.3326781786
 C          3.7411337795       -0.9809751199       -0.0528757993
 C          4.6252868880       -0.5602547768        0.8699375033
 C          5.9222060603       -1.2388985231        1.2084508620
 C          6.9739069568       -0.9356768489        0.1220996448
 C          7.4231477267       -2.1574429010       -0.6797291662
 H          7.9870692763       -1.7935643565       -1.5413225895
 H          8.1044973304       -2.7524735304       -0.0679288164
 C          6.3049406431       -3.0824894792       -1.1698176679
 H          5.9791417453       -3.7290392461       -0.3536817031
 H          6.7427148495       -3.7353359275       -1.9279683255
 C          5.0737915033       -2.3897556789       -1.7682809326
 H          5.3335291203       -1.3991924080       -2.1423761725
 H          4.7384275527       -2.9755427785       -2.6265708982
 C          3.8742395042       -2.2738916294       -0.8090088030
 H          2.9513958378       -2.3510247395       -1.3915953029
 H          3.8879947711       -3.1098803943       -0.1043306396
 H          7.8549895880       -0.4874905912        0.5838356378
 H          6.5595186996       -0.1861000340       -0.5554075676
 H          6.2497977711       -0.8505349276        2.1729886403
 H          5.7636335709       -2.3110858641        1.2997183437
 O          4.4757444432        0.5981724346        1.5647075403
 C          3.3870306063        1.4263211493        1.3498362152
 O          3.3721139442        2.4544120925        2.0569160910
 H         -1.0122512207        1.6927899179       -1.3856630874
 C         -1.0915578297        1.1924268817       -0.4331439333
 C         -0.0315302608        1.2271311287        0.4578150580
 C         -0.1728149871        0.5789115748        1.6824145726
 C         -1.3355393492       -0.0977154643        1.9945792751
 C         -2.3857440480       -0.1447087124        1.0937280496
 C         -2.2611723434        0.5072345491       -0.1242368489
 N         -3.3177913598        0.4589835893       -1.0466653681
 S         -4.8812038804        0.7524057145       -0.5192803695
 O         -5.5949428945        1.2036928171       -1.6939797809
 O         -4.8980134314        1.6387157240        0.6211816781
 C         -5.4917560839       -0.8544296468       -0.0548825252
 C         -6.0380173075       -1.0467175857        1.1988583745
 C         -6.5231410956       -2.3014324422        1.5336662507
 C         -6.4549381646       -3.3357259641        0.6130069127
 C         -5.9051122917       -3.1256434801       -0.6429333854
 C         -5.4193569127       -1.8736046922       -0.9840901261
 H         -4.9876758995       -1.6701195174       -1.9498505413
 H         -5.8530732516       -3.9326876432       -1.3559278695
 H         -6.8327654489       -4.3113039975        0.8755070545
 H         -6.9508198868       -2.4666846606        2.5095419350
 H         -6.0655233428       -0.2146210459        1.8844246771
 H         -3.1273609341        0.9307287303       -1.9185020039
 H         -3.2940273003       -0.6747553888        1.3292681208
 H         -1.4263457694       -0.5972284764        2.9473327661
 H          0.6478133557        0.6139445198        2.3866485291
 C          1.2555827094        1.9624146797        0.1720328692
 H          1.3521923559        2.7708192679        0.9116436028
 C          1.3248139195        2.5638696989       -1.2161529792
 C          0.6885266676        3.8915647170       -1.4957266603
 C          2.1813456874        3.7724877550       -1.4382940625
 H          2.7410658659        3.8464496401       -2.3586102552
 H          2.6965793187        4.1793334839       -0.5802280032
 H          0.1870764808        4.3879767354       -0.6784060941
 H          0.2255866907        4.0517567345       -2.4581584790
 H          1.3101319533        1.8124379132       -1.9974683282
 O          1.6970543089       -0.5385832422       -1.1790921345
