  62
        -98.94390031
 C          1.9712768302        1.2416418799       -0.1948963807
 C          2.3256094800        0.0488512195       -0.8707210700
 C          3.7571926400       -0.2902316305       -0.8603549002
 C          4.6271308802        0.5266618699       -0.2396377311
 C          6.0984353503        0.2664955800       -0.0996331714
 C          6.4042103807       -0.5012239092        1.1942935990
 C          5.5221447308       -1.7316708590        1.4070386601
 H          5.8472452311       -2.2081469084        2.3344360303
 H          4.4888313108       -1.4097769589        1.5564667502
 C          5.5717402504       -2.7542040298        0.2631838408
 H          6.4574191202       -2.5825035702       -0.3496397896
 H          5.6624896506       -3.7547863595        0.6911050214
 C          4.3314985601       -2.7646041904       -0.6324763688
 H          3.4324219003       -2.8450191200       -0.0157359285
 H          4.3746899999       -3.6562157008       -1.2639060083
 C          4.1700818198       -1.5541133710       -1.5605081996
 H          5.0900274396       -1.3991483013       -2.1280094300
 H          3.3650476196       -1.7822101714       -2.2655683891
 H          7.4531718007       -0.8023071392        1.1770888189
 H          6.2578897210        0.1744034414        2.0401025986
 H          6.4455550400       -0.2998883506       -0.9615399711
 H          6.6171133003        1.2262230500       -0.0736388222
 O          4.2503214504        1.6716867603        0.3844487083
 C          2.9192869004        2.0491849903        0.4357935885
 O          2.7096363706        3.1082989007        1.0608474179
 O          1.4998261298       -0.6991820409       -1.4561252792
 C          0.5186054802        1.6843574399       -0.1111493405
 C         -0.2460896695        0.6607548504        0.6919147904
 C         -0.0011533090        0.5827101613        2.0616885404
 C         -0.6323431988       -0.3681821682        2.8387930912
 C         -1.5267830389       -1.2571163785        2.2672081121
 C         -1.7748977294       -1.1918314394        0.9014391622
 C         -1.1393614697       -0.2318715799        0.1226011513
 H         -1.3267753400       -0.2233016306       -0.9371768186
 N         -2.6523072796       -2.1065409498        0.3002213630
 S         -3.7687483200       -1.6441585806       -0.8512176969
 O         -4.6344234800       -2.7944661607       -0.9898649859
 O         -3.1107032404       -1.1899522714       -2.0484297374
 C         -4.6710723397       -0.3050990201       -0.0932332275
 C         -5.7796608495       -0.6087862696        0.6732892731
 C         -6.4597222993        0.4183435708        1.3069133727
 C         -6.0162444593        1.7253280507        1.1715526317
 C         -4.9004110496        2.0131208002        0.4009612011
 C         -4.2181585998        0.9905904198       -0.2396987485
 H         -3.3506406600        1.1802209194       -0.8495233589
 H         -4.5567522596        3.0295983401        0.2937550403
 H         -6.5443382592        2.5251313210        1.6663029813
 H         -7.3304328591        0.1978584312        1.9031790631
 H         -6.0952107594       -1.6372075496        0.7426640339
 H         -3.0551978794       -2.7791936194        0.9358386036
 H         -2.0170824787       -2.0058773681        2.8707440228
 H         -0.4302221784       -0.4184578575        3.8980837412
 H          0.7042292811        1.2741862716        2.5026304897
 H          0.5265010104        2.6252150103        0.4566526689
 C         -0.0505148802        1.9564336390       -1.4867185105
 C         -1.2174088303        2.8844993389       -1.6344358607
 C          0.1444842096        3.3136997286       -2.0901286214
 H          0.3374912492        3.3834186479       -3.1501568315
 H          0.6747667098        4.0478261590       -1.5007777421
 H         -1.9604767405        2.6626131284       -2.3862115703
 H         -1.6118420400        3.3354199095       -0.7361146208
 H          0.0118263896        1.1057126486       -2.1547107999
