  62
        -98.93952380
 C         -2.6160564535       -1.2423156464        0.0864572694
 C         -2.7786926872       -0.2584224483       -0.9181229351
 C         -4.1446821107        0.2569442186       -1.0904504910
 C         -5.1374580255       -0.2354092912       -0.3271846678
 C         -6.5613853895        0.2375550903       -0.3620302421
 C         -6.7966772482        1.3642815771        0.6537153451
 C         -5.7576977098        2.4837739896        0.5864301870
 H         -6.0415576861        3.2356186318        1.3261166172
 H         -4.7851899625        2.0880952720        0.8889183079
 C         -5.6265387494        3.1467615335       -0.7918605901
 H         -6.5088109504        2.9267338682       -1.3940388062
 H         -5.5879675827        4.2296914688       -0.6564993180
 C         -4.3702149399        2.7506478974       -1.5700001014
 H         -3.4891184313        2.8800488395       -0.9358305625
 H         -4.2658713222        3.4339268743       -2.4170651327
 C         -4.3545098985        1.3223443649       -2.1291689080
 H         -5.2703590920        1.1376128858       -2.6941176586
 H         -3.5047967799        1.2436351371       -2.8135748521
 H         -6.7727171052        0.9355109058        1.6583018104
 H         -7.7921622320        1.7789883564        0.4852075560
 H         -7.2096139928       -0.6044279919       -0.1135462648
 H         -6.7995851584        0.5833787412       -1.3659014761
 O         -4.9450755590       -1.1989726600        0.6102254303
 C         -3.6817983782       -1.7132883022        0.8521554468
 O         -3.6379333543       -2.5697958994        1.7589550786
 O         -1.8352068344        0.1669855160       -1.6341843640
 C         -1.2389604957       -1.8185148732        0.3601488886
 C         -0.2751161874       -0.7103342587        0.7111445771
 C         -0.6511626756        0.2278520759        1.6690106627
 C          0.2006222931        1.2545742665        2.0271875804
 C          1.4490588245        1.3694858334        1.4411136799
 C          1.8404604538        0.4323817092        0.4958695737
 C          0.9841318823       -0.6049009651        0.1432234713
 H          1.3040390717       -1.3255363290       -0.5932827273
 N          3.1026595707        0.5457813656       -0.1135653701
 S          4.4159438155        0.9182081580        0.8813244077
 O          4.3790580076        0.1027630074        2.0750116115
 O          4.4423358462        2.3435276623        1.0944771865
 C          5.7778843539        0.4359816560       -0.1618681520
 C          6.2432019935        1.3302484975       -1.1071519708
 C          7.2846372253        0.9455364783       -1.9365547839
 C          7.8390085267       -0.3194579406       -1.8086674452
 C          7.3615216407       -1.2057636696       -0.8548151872
 C          6.3195262892       -0.8279657243       -0.0226492753
 H          5.9234716563       -1.4806565748        0.7388698509
 H          7.7963607106       -2.1873838194       -0.7561379864
 H          8.6501241584       -0.6159160217       -2.4548461856
 H          7.6603682148        1.6320866668       -2.6779638646
 H          5.7873348488        2.3048616873       -1.1644258864
 H          3.3089366330       -0.2414657054       -0.7133204419
 H          2.1241077272        2.1659418898        1.7101795295
 H         -0.1089187006        1.9757743287        2.7693110119
 H         -1.6268993777        0.1412903896        2.1290530489
 H         -1.3489305098       -2.4635822399        1.2444893526
 C         -0.7924911943       -2.6700014417       -0.8103727659
 C          0.1416732487       -3.8220157344       -0.5953395970
 C         -1.3005822585       -4.0754214428       -0.9136561076
 H         -1.5548405377       -4.4616259911       -1.8892479752
 H         -1.9484134307       -4.4260348236       -0.1232725531
 H          0.8765786296       -4.0406761770       -1.3556224902
 H          0.4782837061       -4.0113286804        0.4129279298
 H         -0.7060471748       -2.1004155872       -1.7287115656
