  62
        -98.94329401
 C         -2.5119976538       -1.0406417380       -0.1549066778
 C         -3.6552894785       -0.8821388167        0.6649772216
 C         -4.6960049175        0.0109471822        0.1446970006
 C         -4.5291433838        0.6040586291       -1.0515965457
 C         -5.5097425833        1.5244565250       -1.7265315382
 C         -5.4148765326        2.9851357068       -1.2646175764
 C         -5.9536507045        3.2599807579        0.1398921405
 H         -6.0270714140        4.3439187756        0.2481758871
 H         -6.9625761503        2.8554739978        0.2267202636
 C         -5.0767647350        2.7096107309        1.2733033974
 H         -4.9551379421        3.4742232231        2.0438887758
 H         -4.0801426292        2.4846267345        0.8862771103
 C         -5.6354198893        1.4621249839        1.9579633737
 H         -4.9190706718        1.1375350683        2.7170981190
 H         -6.5715407114        1.7093750603        2.4635026580
 C         -5.8890384841        0.2818535975        1.0108979911
 H         -6.0703205777       -0.6101885291        1.6155786342
 H         -6.7693879253        0.4736477713        0.3979485221
 H         -5.9862313308        3.5884356471       -1.9738273106
 H         -4.3712385664        3.3025799245       -1.3232508201
 H         -5.2862804337        1.4863792376       -2.7948204188
 H         -6.5244776226        1.1572879654       -1.5704437497
 O         -3.4220668480        0.4122114249       -1.8169749169
 C         -2.3793083573       -0.3943713779       -1.3837666368
 O         -1.4188981684       -0.4570493120       -2.1743471454
 H          1.0889603475       -2.1894960467       -0.8840811349
 C          1.0424270881       -1.3676528314       -0.1868511978
 C         -0.1308657077       -1.1100067164        0.5023043362
 C         -0.1548679779       -0.0420727063        1.3966142911
 C          0.9606347812        0.7502418147        1.5826182681
 C          2.1264903232        0.4988091014        0.8792243900
 C          2.1648071911       -0.5667622006       -0.0080807272
 N          3.3380846352       -0.8206376585       -0.7349380804
 S          4.8131218468       -0.8257589251        0.0595136207
 O          5.6780815632       -1.6475690816       -0.7585272920
 O          4.6695611286       -1.2234693983        1.4407606311
 C          5.3613432815        0.8655100248       -0.0361929277
 C          5.7238090155        1.5383757689        1.1141132009
 C          6.1586603623        2.8508853273        1.0142676505
 C          6.2242104173        3.4633476498       -0.2277712257
 C          5.8593251348        2.7726842992       -1.3739500113
 C          5.4244483317        1.4603525531       -1.2809751207
 H          5.1340955743        0.8900427977       -2.1475909953
 H          5.9114027959        3.2523033604       -2.3381594844
 H          6.5618460082        4.4849390293       -0.3034728205
 H          6.4430941267        3.3894121507        1.9040029264
 H          5.6516780774        1.0235288727        2.0590109646
 H          3.2640759394       -1.5901797348       -1.3837669562
 H          2.9993972698        1.1159250182        1.0154555662
 H          0.9243793059        1.5745130880        2.2788117801
 H         -1.0666310707        0.1568975564        1.9434657069
 C         -1.3834619190       -1.9330289207        0.3307214408
 H         -1.6977381673       -2.2833089248        1.3248187979
 C         -1.2182148190       -3.1336343586       -0.5759089809
 C         -0.5604281039       -4.3769379539       -0.0579043876
 C         -2.0369634397       -4.3603117218       -0.3131877943
 H         -2.4214338814       -4.9137438452       -1.1567330958
 H         -2.7040620270       -4.3401969553        0.5360408948
 H          0.0687539373       -4.9465851612       -0.7254380203
 H         -0.2214880652       -4.3719481148        0.9671787055
 H         -1.0521981962       -2.8589442469       -1.6116053042
 O         -3.7978985846       -1.4588571709        1.7764115848
