  62
        -98.93966475
 C          0.3543547829        1.6482669245        0.8205416156
 C          1.2934844989        1.6940092448       -0.2343744896
 C          2.4267473083        0.7531401887       -0.1524832923
 C          2.4891291135       -0.1069518596        0.8787231653
 C          3.4863452099       -1.2088871098        1.1375385061
 C          4.9665794852       -0.8979552928        0.8722418138
 C          5.5236122859       -1.6062820232       -0.3639410804
 H          6.6054377077       -1.7077211423       -0.2513639152
 H          5.1038037058       -2.6136593432       -0.4054279895
 C          5.2637412747       -0.8996631539       -1.6931182492
 H          5.8847730323       -0.0030307054       -1.7530789607
 H          5.5842636927       -1.5717274265       -2.4927907325
 C          3.8113872309       -0.4928505212       -1.9508536247
 H          3.1209182878       -1.2794574528       -1.6439779089
 H          3.6842285873       -0.3721056362       -3.0292699870
 C          3.4165780784        0.8325554953       -1.2812943138
 H          4.3115494740        1.3596602933       -0.9380524481
 H          2.9395865632        1.4852561333       -2.0190710412
 H          5.1118537798        0.1778503955        0.7919546275
 H          5.5366486548       -1.2382060560        1.7383451826
 H          3.3477891299       -1.4769163854        2.1878943749
 H          3.1801850227       -2.0792877364        0.5492332322
 O          1.5551638064       -0.1201134239        1.8732267952
 C          0.4630203875        0.7281603389        1.8603324635
 O         -0.3267621627        0.5676802951        2.8130546794
 H         -1.4582566417       -0.0048390662        0.1110546470
 C         -1.8519025302        0.6712186674       -0.6340524982
 C         -1.6912476927        2.0402190200       -0.4579647431
 C         -2.2230797537        2.8981830263       -1.4102105101
 C         -2.8611421401        2.3865626153       -2.5282264717
 C         -2.9634269890        1.0222509329       -2.7289835962
 C         -2.4483540092        0.1555464151       -1.7706998293
 N         -2.5311102540       -1.2364955143       -1.9196473440
 S         -1.3225330886       -2.2150631947       -1.3007216185
 O         -0.0161389916       -1.6053619010       -1.3895409993
 O         -1.4806890775       -3.4647351462       -2.0181598648
 C         -1.7812537630       -2.4744304524        0.3987554355
 C         -3.1137423121       -2.6494496165        0.7157598311
 C         -3.4601598887       -2.8797914907        2.0371854544
 C         -2.4755826283       -2.9350715572        3.0121988797
 C         -1.1419867494       -2.7649597909        2.6765944195
 C         -0.7898244626       -2.5351840236        1.3567141044
 H          0.2351352552       -2.3778343852        1.0580443061
 H         -0.3751557618       -2.7944467859        3.4337395851
 H         -2.7471792368       -3.1074000794        4.0416726431
 H         -4.4964529937       -3.0108661954        2.3043621496
 H         -3.8515904132       -2.5938298208       -0.0671524587
 H         -2.8649260978       -1.5588519386       -2.8160587286
 H         -3.4302042083        0.6281795865       -3.6187449401
 H         -3.2650544187        3.0622858451       -3.2668889509
 H         -2.1234040896        3.9642051566       -1.2880958961
 C         -0.9095091170        2.4895978931        0.7543071116
 H         -1.4907564877        2.2363354240        1.6530077731
 C         -0.5968609863        3.9694130460        0.7703420483
 C         -1.6053888509        4.9438074067        1.2988102584
 C         -0.3662217760        4.6464355158        2.0868523210
 H          0.4017220162        5.4026431848        2.1494715060
 H         -0.4572027561        4.0420990611        2.9777766147
 H         -2.5419133663        4.5470769742        1.6603921808
 H         -1.6883385352        5.9091423873        0.8227627847
 H          0.0238955914        4.2729189027       -0.0642682388
 O          1.1910119143        2.4802523192       -1.2135372635
