  62
        -98.93673066
 C         -2.4718665750       -0.2875512980       -0.3054839428
 C         -2.1642047228       -1.4393445639       -1.0680864852
 C         -1.5405261411       -2.5642026179       -0.3537689222
 C         -1.2924072643       -2.4415602251        0.9613658967
 C         -0.5878548937       -3.4282337987        1.8511144742
 C          0.9092288236       -3.0846792023        1.9455716581
 C          1.7793749393       -3.7102823490        0.8565110629
 H          2.7831848559       -3.2935186914        0.9683220798
 H          1.8464563124       -4.7883230356        1.0211468016
 C          1.2980935608       -3.4540726959       -0.5739984763
 H          2.1516293122       -3.5793081777       -1.2434252188
 H          0.9678950418       -2.4163859134       -0.6546621522
 C          0.1782885881       -4.4098978533       -1.0135421140
 H          0.4421288656       -4.8553281394       -1.9749514872
 H          0.1151536006       -5.2306213105       -0.2987754197
 C         -1.2105171754       -3.7733959109       -1.1859127070
 H         -1.3312043988       -3.4361840206       -2.2201255727
 H         -1.9767915878       -4.5365010076       -1.0129559507
 H          1.2865474536       -3.4121363944        2.9171047906
 H          1.0064856363       -1.9959708226        1.9029633224
 H         -1.0317464255       -3.3289289896        2.8440905210
 H         -0.7385474948       -4.4443840665        1.4971836292
 O         -1.6230009121       -1.3273292934        1.6661834319
 C         -2.1576458633       -0.2082547420        1.0530297429
 O         -2.3220936334        0.7578126363        1.8240610609
 H         -0.3442465273        0.9460221339       -1.1577782696
 C         -0.7068130024        1.8872815796       -0.7726853801
 C         -2.0775542782        2.0998163048       -0.6794685575
 C         -2.5283378101        3.3232751795       -0.2063663973
 C         -1.6221724275        4.2885361166        0.2013430474
 C         -0.2630810385        4.0370035059        0.1886309661
 C          0.1971575758        2.8157510617       -0.2912926831
 N          1.5725712468        2.4882310551       -0.2920707843
 S          2.0337153519        1.1314084842        0.6150513792
 O          1.1432549898        0.0308031900        0.3693402448
 O          2.2110181951        1.5333399110        1.9972337580
 C          3.6272509811        0.7916357814       -0.1067614043
 C          3.6873091978       -0.0331409312       -1.2127500464
 C          4.9182025886       -0.2809158764       -1.7991624454
 C          6.0624034882        0.3009644840       -1.2741166473
 C          5.9868389684        1.1262953789       -0.1624304530
 C          4.7584855975        1.3764810306        0.4287844825
 H          4.6555029356        1.9987521937        1.3029626110
 H          6.8785952187        1.5742120466        0.2454909415
 H          7.0190189180        0.1066123146       -1.7327117579
 H          4.9791007163       -0.9255943191       -2.6611960961
 H          2.7730577924       -0.4701448113       -1.5809931045
 H          2.1377742369        3.2658149449        0.0275999454
 H          0.4375169269        4.7711139473        0.5589372941
 H         -1.9831839388        5.2370951941        0.5697761380
 H         -3.5862067128        3.5132178988       -0.1252535334
 C         -2.9674800811        0.9407982035       -1.0534364504
 H         -2.7891191051        0.6990272131       -2.1152595598
 C         -4.4532748443        1.2307762579       -0.9214424179
 C         -5.4225868339        0.1394504602       -0.5812135772
 C         -5.1567844616        1.2383937690        0.4012938697
 H         -5.9301193181        1.9749616080        0.5644441103
 H         -4.5694347507        1.0176214843        1.2783168485
 H         -5.0162583793       -0.8398235335       -0.3725162243
 H         -6.3743574101        0.1199947895       -1.0906102977
 H         -4.7905460074        1.9575689631       -1.6543174767
 O         -2.3815948321       -1.5149713451       -2.3094070021
