  62
        -98.94897444
 C         -1.6311517799       -1.2825939274       -0.3022620715
 C         -0.5496361670       -1.6869940515       -1.1187030381
 C          0.4134227755       -2.6075969140       -0.5036316740
 C          0.2446004237       -2.9737697606        0.7799688493
 C          1.1707032944       -3.8794965697        1.5391348664
 C          2.2579835042       -3.0863788971        2.2762924343
 C          2.9743829870       -2.0547478866        1.4043943931
 H          2.2658174562       -1.2648821754        1.1422775246
 H          3.7446553441       -1.5906402079        2.0262587076
 C          3.6176336501       -2.6273914769        0.1334916776
 H          3.7410493129       -3.7062233729        0.2382527745
 H          4.6153140178       -2.1964420600        0.0253061373
 C          2.8586665386       -2.3255619931       -1.1598203532
 H          2.6355215413       -1.2571409816       -1.2109875567
 H          3.5122888846       -2.5684578476       -2.0016877583
 C          1.5480645712       -3.0952650691       -1.3598923274
 H          1.2282897068       -2.9425971009       -2.3948027184
 H          1.7170975433       -4.1628707566       -1.2049990161
 H          2.9846051776       -3.7932475254        2.6828405904
 H          1.7943742174       -2.5543210271        3.1106084476
 H          0.5818554317       -4.4351936382        2.2712871504
 H          1.6283255202       -4.5833786600        0.8461306039
 O         -0.7865830936       -2.5362978918        1.5460567073
 C         -1.7364293875       -1.6652247153        1.0348301722
 O         -2.6156463027       -1.3273434387        1.8514475307
 H         -0.4803961521        1.0445176334       -0.3184998990
 C         -1.3499316085        1.5378455017        0.0915161615
 C         -2.6039162079        0.9731330848       -0.1087215566
 C         -3.7155852058        1.6206336122        0.4123280943
 C         -3.5632388974        2.7831943263        1.1491719517
 C         -2.3092325772        3.3119179049        1.3917345523
 C         -1.1912578300        2.6787579573        0.8587254666
 N          0.0985226872        3.1918760564        1.0636365174
 S          1.4225157112        2.1756485735        1.1613685044
 O          1.0690949599        0.8583220857        1.6372340125
 O          2.3821210376        2.8983452682        1.9717040632
 C          2.0651037897        2.0778316149       -0.4984784837
 C          1.4592134429        2.7337231307       -1.5503656131
 C          2.0207812236        2.6314527964       -2.8142246503
 C          3.1733527978        1.8864113152       -3.0049055956
 C          3.7751483429        1.2397609244       -1.9367412583
 C          3.2168819401        1.3350049118       -0.6720297692
 H          3.6502149053        0.8448237860        0.1857057129
 H          4.6711488323        0.6582760911       -2.0835563710
 H          3.6043974937        1.8075543638       -3.9903621179
 H          1.5525592019        3.1328378998       -3.6460068162
 H          0.5615065915        3.3045469755       -1.3794294854
 H          0.1629743420        3.9572075336        1.7179844041
 H         -2.1907814658        4.2019102186        1.9907534825
 H         -4.4337619186        3.2743781257        1.5569068706
 H         -4.6989522944        1.2084387846        0.2572018950
 C         -2.6631661437       -0.3254080696       -0.8735718669
 H         -2.3401196136       -0.1323373881       -1.9075408076
 C         -4.0369733449       -0.9594930337       -0.8993503379
 C         -5.0497067722       -0.5220072285       -1.9141840881
 C         -4.3962345542       -1.8644958808       -2.0383335469
 H         -4.9816570263       -2.7472559906       -1.8296181111
 H         -3.6554070182       -2.0053427338       -2.8117229692
 H         -4.7577195077        0.2491337160       -2.6106463559
 H         -6.0884594005       -0.4844852043       -1.6227083574
 H         -4.3853662012       -1.2369624817        0.0891439636
 O         -0.4007121249       -1.2999567283       -2.3102451096
