  62
        -98.93754304
 C         -1.3526393292       -1.7930066400        0.2462634599
 C         -1.5233743600       -0.8183119799       -0.7625787698
 C         -2.5863701202        0.1851586697       -0.5421293990
 C         -3.2793118996        0.1672946293        0.6104089013
 C         -4.3817356097        1.0865637388        1.0723094021
 C         -4.2001342903        2.5878124589        0.8004161923
 C         -5.1350222310        3.1275921389       -0.2833346871
 H         -6.1137422608        2.6579560585       -0.1647205467
 H         -5.2682038813        4.2004506488       -0.1277125868
 C         -4.6496323917        2.9269083993       -1.7179569274
 H         -3.8100273820        3.5977727797       -1.9133635276
 H         -5.4620311321        3.2219620992       -2.3863217769
 C         -4.2199747314        1.5009110496       -2.0686288679
 H         -4.2922225719        1.3879788298       -3.1525459879
 H         -4.9044573809        0.7766982492       -1.6281217777
 C         -2.7753087411        1.1757327899       -1.6596567287
 H         -2.2442045114        0.7378375703       -2.5107536391
 H         -2.2401997313        2.0995614301       -1.4200989088
 H         -4.4184700700        3.1210541886        1.7269407826
 H         -3.1639364805        2.8016153093        0.5432181518
 H         -5.3228473998        0.7431158586        0.6351372025
 H         -4.4595548091        0.9119275085        2.1478986621
 O         -3.0612320588       -0.7770037409        1.5693923410
 C         -2.1212645086       -1.7749166905        1.4140988203
 O         -2.0591301478       -2.5743159007        2.3676761301
 O         -0.8361010305       -0.7647247594       -1.8179142102
 C         -0.2977882089       -2.8882811597        0.1610663091
 C          1.0456794111       -2.2513671293        0.4194375585
 C          1.5659573517       -2.2147500494        1.7095021583
 C          2.7437225816       -1.5402782191        1.9777343678
 C          3.4111887109       -0.8624341987        0.9722271076
 C          2.8900295003       -0.8833636986       -0.3144231921
 C          1.7341368003       -1.5983479589       -0.5915447217
 H          1.3336168298       -1.5914846188       -1.5927658315
 N          3.5086764295       -0.1219930581       -1.3253863722
 S          3.7894424692        1.4833423219       -0.9332965820
 O          3.6366073383        2.2216134721       -2.1678307718
 O          5.0808271495        1.5966225721       -0.3000932327
 C          2.5218257296        1.9423243812        0.2422556787
 C          1.1959166696        1.6923768408       -0.0533482606
 C          0.2303271899        2.0260918503        0.8826580299
 C          0.5970030404        2.6139439202        2.0829908099
 C          1.9307653004        2.8711719705        2.3583097292
 C          2.9030685901        2.5265541911        1.4335531287
 H          3.9529869201        2.6914702014        1.6136441882
 H          2.2150293808        3.3296675004        3.2916630892
 H         -0.1629617193        2.8670813898        2.8054224103
 H         -0.8050199401        1.8046830400        0.6735983804
 H          0.9177988192        1.2308960010       -0.9881656706
 H          3.0280135591       -0.1848956781       -2.2122091920
 H          4.3143747608       -0.3060050184        1.1656471073
 H          3.1379108622       -1.5271076092        2.9822607576
 H          1.0235336623       -2.7041326498        2.5058433985
 H         -0.5139693382       -3.5742771399        0.9900090890
 C         -0.3615672093       -3.6647284794       -1.1375074911
 C          0.3448109211       -4.9825764792       -1.2309902917
 C         -1.1524722689       -4.9358041996       -1.1903670409
 H         -1.7014889093       -5.1633742096       -2.0918748107
 H         -1.6493672283       -5.2547281600       -0.2856278308
 H          0.8268009607       -5.2453081888       -2.1602073220
 H          0.8645228217       -5.3327766392       -0.3519627221
 H         -0.3812925999       -3.0394448592       -2.0202575909
