  62
        -98.93694271
 C          2.0471752805        1.0456024485        0.2233447591
 C          2.7573921105        0.1562713886        1.0672953692
 C          4.1549778703       -0.1529935519        0.7119807190
 C          4.6804919302        0.4187323075       -0.3873336513
 C          6.0592681400        0.2452814569       -0.9675014515
 C          6.2325511695       -1.0943567734       -1.6993812811
 C          5.6780342993       -2.3062885129       -0.9558459405
 H          4.6117173394       -2.1588757226       -0.7746807703
 H          5.7770558789       -3.1734872132       -1.6141688702
 C          6.3770254495       -2.6371320127        0.3608195294
 H          5.9562770493       -3.5790842424        0.7221496599
 H          7.4401847394       -2.8006587030        0.1710829493
 C          6.2344585101       -1.5977407822        1.4754759291
 H          6.9094821103       -0.7598150725        1.3228698486
 H          6.5433284401       -2.0780427220        2.4085844092
 C          4.8122960702       -1.0917942917        1.6948173292
 H          4.7698293906       -0.5787522414        2.6632241890
 H          4.1370317900       -1.9494131515        1.7955303997
 H          7.2950060994       -1.2421506237       -1.9005054513
 H          5.7136146093       -1.0259131936       -2.6586344410
 H          6.1986946201        1.0547555466       -1.6875424819
 H          6.8094854202        0.3605781970       -0.1908527117
 O          3.9569431603        1.2576826575       -1.1791492714
 C          2.6407371104        1.5909321979       -0.9148006613
 O          2.1451106405        2.3660472078       -1.7552787614
 O          2.2439052905       -0.3644226609        2.0956681995
 C          0.6159298807        1.3657664391        0.6179385093
 C         -0.3680572997        0.5344990490       -0.1700091202
 C         -0.5707896100        0.7349367886       -1.5312703902
 C         -1.4923581603       -0.0314050914       -2.2218726498
 C         -2.2366767805       -1.0004979109       -1.5722002792
 C         -2.0430928802       -1.2060406905       -0.2128686392
 C         -1.1135508998       -0.4400729205        0.4780088003
 H         -0.9547248297       -0.6147831802        1.5337284903
 N         -2.8211644103       -2.1679468200        0.4560843213
 S         -4.4779245404       -2.0855687397        0.2129570616
 O         -5.0688667603       -2.6230520891        1.4183068220
 O         -4.8212453908       -2.7629424600       -1.0120806080
 C         -4.8233164399       -0.3411373296        0.0597771411
 C         -5.3067227700        0.1645537801       -1.1292912390
 C         -5.5124001497        1.5303209201       -1.2423858494
 C         -5.2261166592        2.3627193204       -0.1720202898
 C         -4.7455875791        1.8388887707        1.0184215603
 C         -4.5407785894        0.4744025307        1.1379690707
 H         -4.1745066094        0.0348825709        2.0520063408
 H         -4.5255606787        2.4894005609        1.8497453800
 H         -5.3785748989        3.4264262004       -0.2639227502
 H         -5.8887061998        1.9403733499       -2.1656491995
 H         -5.5110277104       -0.5172398001       -1.9385717387
 H         -2.6018266401       -2.2589320797        1.4373987113
 H         -2.9597628607       -1.6045972809       -2.0961620489
 H         -1.6353533005        0.1293680483       -3.2795391798
 H          0.0144732201        1.4821366083       -2.0441153206
 H          0.5400730508        1.0587314595        1.6698737194
 C          0.2712285311        2.8393022991        0.5242863588
 C         -0.9305312486        3.3426481397        1.2644490989
 C          0.4457164116        3.7111766895        1.7295775085
 H          0.7872775319        4.7251263694        1.5852042780
 H          0.8218908317        3.2499854997        2.6313641785
 H         -1.5381677585        4.1039505497        0.8010609388
 H         -1.4891413487        2.6275401201        1.8492960193
 H          0.4907481210        3.2750372187       -0.4409189414
