  62
        -98.93375994
 C          1.6908041582        1.2275121964       -0.6500335752
 C          1.5263374760        0.1988845118        0.3089385631
 C          2.7572790667       -0.2797549125        0.9719627303
 C          3.9343814778        0.2938861381        0.6729028834
 C          5.2954446697       -0.0812580049        1.1900547874
 C          5.9876548480       -1.0667179553        0.2332209123
 C          5.6647602708       -2.5396541977        0.4815364305
 H          6.1065453217       -3.1116614105       -0.3375850564
 H          6.1503462833       -2.8621655819        1.4049633888
 C          4.1742159529       -2.8780790771        0.5696621770
 H          3.6293083615       -2.3447594713       -0.2112270410
 H          4.0615908574       -3.9457369618        0.3716211235
 C          3.5633918057       -2.5622736357        1.9433671351
 H          4.3675061541       -2.3755470603        2.6551644537
 H          3.0246552709       -3.4386502637        2.3098019286
 C          2.5701947714       -1.3896268755        1.9702419573
 H          1.5580871274       -1.7639040724        1.7852438190
 H          2.5565345802       -0.9551044624        2.9757928161
 H          7.0684721776       -0.9383928421        0.3199725449
 H          5.7076290958       -0.7946911601       -0.7877207150
 H          5.2267987015       -0.4895786967        2.1940672125
 H          5.8805873845        0.8401862605        1.2237948933
 O          4.0428189651        1.3114127600       -0.2248066825
 C          2.9402250702        1.8037881219       -0.8966985566
 O          3.1952356268        2.7453942732       -1.6739399853
 O          0.4188052138       -0.3198371207        0.6003782169
 C          0.5174628792        1.8262437509       -1.4086433152
 C         -0.5753166901        2.2222904897       -0.4472157460
 C         -0.3876629369        3.3609063187        0.3317848379
 C         -1.3621481320        3.7843003605        1.2142780798
 C         -2.5402787494        3.0704990101        1.3426676136
 C         -2.7314597989        1.9224210804        0.5848586283
 C         -1.7552984578        1.5064737804       -0.3111791976
 H         -1.9135634608        0.6106765364       -0.8887278374
 N         -3.9273739371        1.1814171735        0.6925272665
 S         -3.8191993784       -0.3813023153        1.3160950812
 O         -5.1583719057       -0.6585725118        1.7990368264
 O         -2.7672930747       -0.4849723652        2.2995630701
 C         -3.5051793142       -1.4233304805       -0.0894879884
 C         -4.5467572754       -1.6397780433       -0.9711544002
 C         -4.3439563399       -2.4803436040       -2.0530664883
 C         -3.1123705952       -3.0947011684       -2.2262506877
 C         -2.0786382982       -2.8651930023       -1.3314839433
 C         -2.2698591085       -2.0163874260       -0.2513289590
 H         -1.4805451840       -1.7859285187        0.4466147099
 H         -1.1195674842       -3.3390489726       -1.4695278354
 H         -2.9550948983       -3.7557855531       -3.0642673766
 H         -5.1439306396       -2.6582577020       -2.7536017400
 H         -5.4918601023       -1.1573061417       -0.7851351766
 H         -4.6513354880        1.6732291899        1.1998120332
 H         -3.3064432524        3.3945305471        2.0318635934
 H         -1.2045854532        4.6727649488        1.8073418290
 H          0.5376369524        3.9128385602        0.2329351324
 H          0.9184667169        2.7546237039       -1.8474153045
 C          0.0155969368        0.9870940167       -2.5737393275
 C          0.9936446499        0.2990914144       -3.4786801186
 C          0.0830711963       -0.5078093405       -2.6053733089
 H         -0.7333642959       -1.0409882351       -3.0697372544
 H          0.5016759843       -1.0115788386       -1.7496304245
 H          0.8122561447        0.3142868180       -4.5426406983
 H          2.0393520887        0.3592674499       -3.2125924617
 H         -0.8446817399        1.4445268362       -3.0528317042
