  62
        -98.93975886
 C          2.2185138305        0.7910408537        0.1449563285
 C          2.4237208605       -0.3745076988        0.9210768607
 C          3.1188044904       -1.4811101554        0.2510263633
 C          3.4709806843       -1.3482524486       -1.0410529733
 C          4.2287651585       -2.3738705205       -1.8322414984
 C          5.7427116850       -2.1365496947       -1.7408832249
 C          6.2526865198       -1.9439206701       -0.3126628005
 H          7.3359314520       -1.8166637359       -0.3686237756
 H          5.8409390010       -1.0159432665        0.0907103127
 C          5.9222425413       -3.1008006950        0.6407078898
 H          5.6625437889       -3.9911575665        0.0669982021
 H          6.8142276070       -3.3396598653        1.2236211411
 C          4.8049565499       -2.7987109101        1.6410627525
 H          5.0172708997       -1.8569387413        2.1534422712
 H          4.8025410080       -3.5887418372        2.3967791989
 C          3.3887788708       -2.7209422532        1.0567756683
 H          3.1846631364       -3.6166468967        0.4666348476
 H          2.6854270332       -2.6928638263        1.8942703173
 H          6.2532494551       -2.9848304364       -2.2003973187
 H          5.9876641549       -1.2403828132       -2.3155922888
 H          3.9832648550       -3.3669676314       -1.4610668703
 H          3.9204384856       -2.2987443937       -2.8763148994
 O          3.2122545097       -0.2323571605       -1.7688196436
 C          2.5863005643        0.8669746482       -1.1989209754
 O          2.4193472235        1.8220621377       -1.9793885512
 O          2.0370072615       -0.4864990595        2.1167814312
 C          1.5215083185        1.9798211841        0.7833089727
 C          0.1876597147        2.2013849474        0.1121221929
 C         -0.1908526511        3.3986357679       -0.4781954468
 C         -1.4312118442        3.5177211021       -1.0826446624
 C         -2.3163970541        2.4566048756       -1.1090921738
 C         -1.9525023264        1.2564885862       -0.5102257610
 C         -0.7119879994        1.1413842123        0.0978733462
 H         -0.4259378164        0.2078101495        0.5671646761
 N         -2.8369017808        0.1585756524       -0.5400290463
 S         -4.4409134981        0.4611043841       -0.0977565960
 O         -5.1109797977        1.0887255201       -1.2084470958
 O         -4.4835393770        1.1837946539        1.1545442524
 C         -5.0547235457       -1.1971843100        0.1178918733
 C         -5.4481663818       -1.9090071981       -0.9993309721
 C         -5.9031178239       -3.2080512775       -0.8390357866
 C         -5.9561520551       -3.7703655700        0.4278556474
 C         -5.5596876041       -3.0425968554        1.5397312553
 C         -5.1021353331       -1.7432097396        1.3863857943
 H         -4.7918843543       -1.1381602303        2.2233886353
 H         -5.6050468733       -3.4809557577        2.5236953299
 H         -6.3119368247       -4.7811706467        0.5502804642
 H         -6.2150666015       -3.7763765842       -1.7003532948
 H         -5.3981915028       -1.4278439656       -1.9620508529
 H         -2.4733060057       -0.6220444831       -0.0091597559
 H         -3.2848355428        2.5428294376       -1.5743236314
 H         -1.7122299913        4.4528898881       -1.5434073201
 H          0.4848910231        4.2377082519       -0.4728262598
 H          1.3272622510        1.6783105685        1.8234657382
 C          2.4189882752        3.1979456736        0.7907350725
 C          2.2039584367        4.2786834721        1.8064757358
 C          3.3932167750        3.3737360835        1.9154656629
 H          4.3704894468        3.7750948408        1.6930170787
 H          3.3963028655        2.6235988248        2.6929634609
 H          2.3659429202        5.3041930127        1.5110906023
 H          1.3983674980        4.1461290661        2.5128748374
 H          2.7458805538        3.4844927739       -0.2021422287
