  62
        -98.94476539
 C          1.1696346187        1.7701532416       -0.6725392503
 C          1.2112784596        0.4443112618       -1.1736002207
 C          2.5000123201       -0.2549905674       -1.0267698306
 C          3.5434300295        0.3788646831       -0.4648791102
 C          4.9055249399       -0.2156815361       -0.2526919701
 C          5.0330523200       -0.8600599064        1.1334706498
 C          3.8885154906       -1.8125581673        1.4793897992
 H          4.1107600007       -2.2487285074        2.4561261592
 H          2.9613413702       -1.2440787179        1.5898269192
 C          3.6651500016       -2.9355097371        0.4574251489
 H          4.5538958518       -3.0582970463       -0.1634756610
 H          3.5133892821       -3.8721510474        0.9983757385
 C          2.4378522316       -2.7340552276       -0.4339424114
 H          1.5820112713       -2.4780668684        0.1971150785
 H          2.2183679824       -3.6858642876       -0.9272639417
 C          2.5743732811       -1.6688115372       -1.5305455110
 H          3.4986769914       -1.8330981964       -2.0893513508
 H          1.7305719614       -1.7843222376       -2.2173341412
 H          5.0573432893       -0.0672019466        1.8846244900
 H          5.9815850204       -1.3989526758        1.1771487398
 H          5.6430151794        0.5845240845       -0.3390776396
 H          5.0955776606       -0.9561015057       -1.0273733302
 O          3.4672218086        1.6515845329        0.0028346002
 C          2.2814472481        2.3619810021       -0.0682598498
 O          2.3464124972        3.5097292420        0.4192722605
 O          0.2463116202       -0.1356733287       -1.7320689610
 C         -0.0762259819        2.6426283708       -0.7231836603
 C         -0.9431961120        2.3784650198        0.4801417695
 C         -1.3571490629        3.4094178193        1.3149933897
 C         -2.1289923029        3.1386031984        2.4316477794
 C         -2.5009409021        1.8413385781        2.7349650489
 C         -2.0957219013        0.8033594986        1.9016682587
 C         -1.3275781612        1.0792010295        0.7809436290
 H         -1.0025344205        0.2720070899        0.1463816288
 N         -2.4906935104       -0.5142416917        2.1514758582
 S         -1.6864517894       -1.8233760910        1.4988650480
 O         -2.2279892488       -2.9568871516        2.2232113476
 O         -0.2521301395       -1.6705321601        1.5816033584
 C         -2.2451029690       -1.9075535009       -0.1890498821
 C         -1.4554991184       -2.5597574301       -1.1128239922
 C         -1.8981099180       -2.6617633100       -2.4213762723
 C         -3.1180793883       -2.1139317407       -2.7819515824
 C         -3.9043239389       -1.4691950115       -1.8400714524
 C         -3.4686156893       -1.3662404316       -0.5291901922
 H         -4.0552688898       -0.8647687522        0.2228732578
 H         -4.8521680091       -1.0402847220       -2.1235149024
 H         -3.4563753280       -2.1873417406       -3.8037281925
 H         -1.2838327975       -3.1599558593       -3.1542331423
 H         -0.5055625682       -2.9605091395       -0.7995682121
 H         -2.9190064505       -0.7003629323        3.0446555281
 H         -3.0963029822        1.6294953274        3.6098218488
 H         -2.4391814536        3.9458514180        3.0777221796
 H         -1.0532415235        4.4224723096        1.0955903900
 H          0.2947221774        3.6770416510       -0.6437188899
 C         -0.8282515716        2.5337461206       -2.0430623105
 C         -2.1582484611        1.8656850498       -2.1965539510
 C         -2.0616488821        3.3581832299       -2.2688509005
 H         -2.1923970022        3.8444708901       -3.2235983904
 H         -2.4377925526        3.9230896794       -1.4290086604
 H         -2.3304018705        1.3063615900       -3.1031433112
 H         -2.6140407110        1.4227505092       -1.3255454212
 H         -0.1469583613        2.4391009414       -2.8825947904
