  62
        -98.94311401
 C         -2.0473989147       -1.3807302834        0.3311418464
 C         -2.0626851468       -0.2410562913        1.1779518494
 C         -3.0613010993        0.7863541207        0.8701515764
 C         -3.9042076961        0.6042688104       -0.1624552237
 C         -5.0087838506        1.5363699809       -0.5809847469
 C         -4.5488465306        2.6858631117       -1.4878100810
 C         -3.7324197072        3.7748448177       -0.7910902534
 H         -3.6644515197        4.6160754295       -1.4838053485
 H         -4.2715097357        4.1228850101        0.0905489758
 C         -2.3129281046        3.3444536934       -0.3950357137
 H         -2.0405241707        2.4389939169       -0.9420410378
 H         -1.6057932459        4.1224713658       -0.6895266606
 C         -2.1179247547        3.0934772275        1.1003544709
 H         -1.0926095135        2.7497494269        1.2590682593
 H         -2.2533183634        4.0273562983        1.6502833415
 C         -3.0636678548        2.0399639323        1.6915284062
 H         -4.0740662862        2.4407154041        1.7715124374
 H         -2.7084213142        1.7825883681        2.6922920020
 H         -3.9698784072        2.2680029877       -2.3146507746
 H         -5.4452730450        3.1462287348       -1.9097288843
 H         -5.4986133536        1.9432754079        0.3042285743
 H         -5.7328097471        0.9320643428       -1.1318623611
 O         -3.8548157940       -0.4962979038       -0.9555578469
 C         -2.9112613434       -1.4964744348       -0.7585033661
 O         -2.9693288443       -2.4032144379       -1.6114486100
 O         -1.2803512437       -0.0986266494        2.1557949591
 C         -1.0106805908       -2.4440120918        0.6538175316
 C          0.2424113684       -2.2020287755       -0.1529561779
 C          0.2614280590       -2.3662683779       -1.5338610871
 C          1.4171649485       -2.1143473486       -2.2507942213
 C          2.5731456919       -1.6992352355       -1.6117991560
 C          2.5608628218       -1.5207009840       -0.2345608373
 C          1.3983715351       -1.7734793934        0.4833983846
 H          1.3873580960       -1.6217532897        1.5542415868
 N          3.7308570120       -1.1157622439        0.4347604406
 S          4.5513181444        0.2574709779       -0.0509048158
 O          5.0001906409        0.0877655519       -1.4090081838
 O          5.5780258849        0.4536011418        0.9457569073
 C          3.3620978271        1.5831689476        0.0399094963
 C          2.4661345829        1.7596727427       -0.9957692748
 C          1.5255012190        2.7725824108       -0.8991377573
 C          1.4983394196        3.5873523717        0.2222534909
 C          2.4009753025        3.3930240068        1.2562058502
 C          3.3396573916        2.3781555910        1.1685447973
 H          4.0648709759        2.1967175470        1.9454671439
 H          2.3737677272        4.0267033445        2.1280538286
 H          0.7699469805        4.3798778562        0.2905592822
 H          0.8168034323        2.9216869142       -1.6981490528
 H          2.5214595299        1.1142687764       -1.8572382240
 H          3.6356254729       -1.1128646476        1.4403404835
 H          3.4787469326       -1.4999104828       -2.1616156092
 H          1.4208550623       -2.2466939429       -3.3224342666
 H         -0.6410296107       -2.6752254566       -2.0388577627
 H         -0.7591387836       -2.2838641642        1.7111758121
 C         -1.5079968432       -3.8658869974        0.4947429221
 C         -0.7881595273       -4.9661140258        1.2133511661
 C         -2.1566449006       -4.5486421505        1.6596448196
 H         -2.9881198064       -5.2104908672        1.4696905073
 H         -2.2450454047       -3.9920617203        2.5814378795
 H         -0.6762906432       -5.9177734579        0.7171488302
 H          0.0524018519       -4.6932222640        1.8335933502
 H         -1.9050704428       -4.0818834529       -0.4877342174
