  62
        -98.94494951
 C          1.9189640798        0.7256366887       -0.1374665387
 C          2.4994331008        0.0963801427        0.9890215949
 C          3.5671576689       -0.8719176523        0.7066259565
 C          3.8929800333       -1.1359358338       -0.5721705906
 C          4.9914566190       -2.0636622454       -1.0022559226
 C          6.3195424412       -1.3122904420       -1.1704613992
 C          6.6797351932       -0.4212726685        0.0183332886
 H          7.6485866240        0.0337884951       -0.1982677504
 H          5.9519886723        0.3903195383        0.0886157264
 C          6.7495244111       -1.1565513226        1.3640761005
 H          7.6483285660       -0.8335069890        1.8935029318
 H          6.8418235339       -2.2301116165        1.1954724873
 C          5.5648214640       -0.8899626749        2.2944720195
 H          5.8177829502       -1.2751666883        3.2858914319
 H          5.4111886817        0.1877079678        2.3915946596
 C          4.2341079219       -1.5313605316        1.8811286895
 H          4.3820040569       -2.5968981861        1.6929897890
 H          3.5392763790       -1.4241868443        2.7194662102
 H          6.2508992984       -0.6839090506       -2.0614331772
 H          7.1121458703       -2.0451756745       -1.3320659485
 H          5.1013538085       -2.8562544513       -0.2644831804
 H          4.7110890478       -2.5072798818       -1.9592019779
 O          3.2795068125       -0.5475942162       -1.6302120322
 C          2.2853629167        0.4030844085       -1.4445300481
 O          1.8180319557        0.8695888791       -2.4995316613
 H         -0.3230860647       -0.5996766924        0.4358918866
 C         -0.9063582001        0.0109251931       -0.2423521388
 C         -0.4587476370        1.2900855160       -0.5523760656
 C         -1.2251758369        2.0693801937       -1.4079783600
 C         -2.3857937005        1.5617096005       -1.9674682290
 C         -2.8130664003        0.2795035597       -1.6785186478
 C         -2.0672941919       -0.4996207958       -0.8016891353
 N         -2.4990266241       -1.7968730206       -0.4847249488
 S         -4.1296909711       -2.0675522393       -0.2375252666
 O         -4.1908810399       -3.2102976929        0.6468799678
 O         -4.7961125195       -2.2207910362       -1.5071409043
 C         -4.7392279349       -0.6072914102        0.5878129502
 C         -4.1502468219       -0.2365402119        1.7804995306
 C         -4.5994661058        0.9057051393        2.4228050170
 C         -5.6259274977        1.6531900485        1.8655996612
 C         -6.2111567552        1.2643316864        0.6708983440
 C         -5.7640013295        0.1240933814        0.0226774959
 H         -6.1876783575       -0.2127339457       -0.9094694575
 H         -7.0106074605        1.8458690412        0.2409732054
 H         -5.9708939023        2.5433218816        2.3674344363
 H         -4.1450081459        1.2090628544        3.3523354717
 H         -3.3568279099       -0.8402697603        2.1915846933
 H         -1.9295268161       -2.2710241071        0.1996429853
 H         -3.7001635939       -0.1364667679       -2.1276268844
 H         -2.9632786818        2.1725385237       -2.6442207727
 H         -0.9078874477        3.0699313406       -1.6500152180
 C          0.8284668812        1.7596292515        0.0797739793
 H          0.6785541727        1.7985523469        1.1690064737
 C          1.2845234480        3.1218225155       -0.3976132097
 C          0.7318017132        4.3648561790        0.2310621641
 C          2.1460673691        3.9522815114        0.5043669159
 H          2.9479458708        4.5271162940        0.0657471239
 H          2.3834997246        3.5455133733        1.4767100426
 H          0.0080573352        4.2446180488        1.0226571295
 H          0.5635507533        5.2283575994       -0.3944166584
 H          1.5111905619        3.1375782558       -1.4576515790
 O          2.1359372648        0.3283155021        2.1744477082
