  62
        -98.93210491
 C         -1.7348614090       -0.1304306276       -0.7925121755
 C         -2.8989076351        0.6726404728       -0.8307694854
 C         -4.1833947532       -0.0021251849       -0.5324078059
 C         -4.1827174752       -1.3157723756       -0.2443155078
 C         -5.3483194805       -2.1944879744        0.1253423656
 C         -5.8194665570       -1.9774637638        1.5722284901
 C         -5.9196289869       -0.5163731169        2.0021565839
 H         -6.1569682414       -0.4997334144        3.0692029496
 H         -4.9453572636       -0.0395645827        1.8801830472
 C         -6.9820905349        0.3040503640        1.2746560702
 H         -7.0054713715        1.2917514113        1.7423232366
 H         -7.9596135883       -0.1585249428        1.4286574889
 C         -6.7665731593        0.4965292236       -0.2280886440
 H         -7.4451448555        1.2902638003       -0.5543577040
 H         -7.0469573302       -0.3948666448       -0.7827512425
 C         -5.3602634197        0.9402487092       -0.6185211598
 H         -5.3812904973        1.2894863607       -1.6580583532
 H         -5.0862105042        1.8213866872       -0.0271387030
 H         -6.7887687969       -2.4634091862        1.6960554755
 H         -5.1065803722       -2.4714511443        2.2369374366
 H         -6.1651520009       -2.0459935909       -0.5746351519
 H         -5.0059856547       -3.2266019156        0.0226582854
 O         -3.0331029151       -2.0498472111       -0.2145370137
 C         -1.8016905575       -1.4910495639       -0.4825691039
 O         -0.8487925189       -2.2949998152       -0.4250751826
 O         -2.9002817085        1.9029241804       -1.0917897737
 C         -0.3408766360        0.3969765440       -1.0850481692
 C          0.3153875523        0.9789190239        0.1401320064
 C         -0.3578924137        1.8486897211        0.9914289406
 C          0.2855016697        2.3879727339        2.0905902579
 C          1.6133344856        2.0938190594        2.3463379262
 C          2.2954058409        1.2267781509        1.5012207551
 C          1.6360240237        0.6602524342        0.4195920395
 H          2.1631270635       -0.0324404656       -0.2178351843
 N          3.6405307119        0.9060182259        1.7258053406
 S          4.6845595690        0.7441300728        0.4255692668
 O          5.9944953629        1.0167203258        0.9763095764
 O          4.2739259113        1.5681317034       -0.6861690834
 C          4.5866236526       -0.9799791930       -0.0037579246
 C          4.8663943666       -1.9111202147        0.9767825542
 C          4.8054362961       -3.2577358005        0.6578120190
 C          4.4682641362       -3.6484951308       -0.6294051515
 C          4.1939156660       -2.7014776675       -1.6036748323
 C          4.2540380445       -1.3526240952       -1.2906886995
 H          4.0441682734       -0.5847111779       -2.0192354192
 H          3.9298213200       -3.0068424284       -2.6035419688
 H          4.4178734340       -4.6973160014       -0.8759601701
 H          5.0179100220       -3.9983712073        1.4119212352
 H          5.1288767796       -1.5681942341        1.9636614489
 H          4.0709472284        1.3869215271        2.5019141743
 H          2.1188369395        2.5312314693        3.1939800636
 H         -0.2481157694        3.0593590103        2.7466259869
 H         -1.3828963913        2.1082565161        0.7756396602
 H          0.2433859985       -0.4914585879       -1.3745940729
 C         -0.2989905643        1.3587428609       -2.2660006782
 C         -0.1002782374        2.8347973320       -2.1293744035
 C          0.9984796749        1.9841309787       -2.6880592611
 H          1.2171453424        2.0511398544       -3.7435315122
 H          1.8700080751        1.8211274627       -2.0694758193
 H         -0.6555786678        3.4782838051       -2.7945825529
 H          0.0253889082        3.2428556095       -1.1389808526
 H         -0.9622588092        1.0390053202       -3.0640504486
