  62
        -98.93647477
 C         -1.2323338106       -0.5543068602        0.5722470889
 C         -2.0788352305       -0.6003122294       -0.5617931111
 C         -3.1037659808        0.4505660804       -0.6272464702
 C         -3.1361245211        1.4170450295        0.3073753206
 C         -4.1071817014        2.5654874192        0.3603491716
 C         -5.4484373213        2.2182641383        1.0214292013
 C         -6.3732392811        1.3279365187        0.1901626505
 H         -7.3522428311        1.3453579081        0.6732040305
 H         -6.4928918912        1.7597204596       -0.8039342591
 C         -5.9087140307       -0.1300935810        0.0682407193
 H         -5.1648436106       -0.3406748815        0.8400034591
 H         -6.7545641905       -0.7974695714        0.2476681987
 C         -5.3230205206       -0.4972192897       -1.2953148910
 H         -4.9925122403       -1.5381529096       -1.2572300419
 H         -6.0979870006       -0.4167701992       -2.0606862410
 C         -4.1258115208        0.3634357910       -1.7201935803
 H         -4.4605814411        1.3592079612       -2.0104168094
 H         -3.6486846607       -0.1107076881       -2.5814318707
 H         -5.2494708712        1.7402048775        1.9834195409
 H         -5.9664610016        3.1595511980        1.2192840921
 H         -4.2825976015        2.9435878300       -0.6473431881
 H         -3.6257123516        3.3521621789        0.9457117023
 O         -2.2464419711        1.4727389289        1.3354868407
 C         -1.2874689709        0.4864925290        1.4981624898
 O         -0.5471219009        0.6467022684        2.4919155300
 O         -1.9883672103       -1.4625377086       -1.4709714118
 C         -0.1667345303       -1.6237656100        0.7780333180
 C          0.7216481497       -1.6467600087       -0.4447074220
 C          1.0585857200       -2.7240140380       -1.2530083729
 C          1.9227069100       -2.5571793068       -2.3243139328
 C          2.4942834097       -1.3319963864       -2.6067666417
 C          2.1614502094       -0.2416187272       -1.8104853408
 C          1.2812395294       -0.4094634983       -0.7574219409
 H          1.0046169692        0.4542130011       -0.1720953902
 N          2.7094123090        1.0283556332       -2.0443570197
 S          3.0083379087        2.0460222822       -0.7522044688
 O          1.7841085786        2.6597486814       -0.3009074983
 O          4.0203704785        2.9561298929       -1.2473642280
 C          3.7115452990        0.9981115113        0.5101646603
 C          3.0295450091        0.7398970701        1.6814797701
 C          3.5991177893       -0.1183300906        2.6099753793
 C          4.8317782695       -0.6980306900        2.3553539389
 C          5.5097021294       -0.4195431688        1.1779757991
 C          4.9450867292        0.4339875018        0.2452783098
 H          5.4454290291        0.6827194028       -0.6763978300
 H          6.4710609395       -0.8669673284        0.9840119487
 H          5.2656866697       -1.3683017805        3.0803917383
 H          3.0657542694       -0.3305625415        3.5230729792
 H          2.0662426089        1.1953543397        1.8563584705
 H          3.4419921390        1.0606604840       -2.7375119196
 H          3.1744972696       -1.2127713055       -3.4356872416
 H          2.1605384802       -3.4077237762       -2.9450420135
 H          0.6439155403       -3.7005358782       -1.0842067737
 H          0.4649387796       -1.2431624506        1.5990320884
 C         -0.8384464699       -2.8751082107        1.3224962970
 C         -1.4520438996       -3.9650605002        0.5016727960
 C         -0.2393708395       -4.2496079805        1.3389661858
 H         -0.3753135594       -4.8401119813        2.2331937353
 H          0.7130461405       -4.4056605599        0.8606186956
 H         -2.4024339795       -4.3618452007        0.8294993357
 H         -1.3699533496       -3.8956703792       -0.5703699139
 H         -1.3935586100       -2.6019995116        2.2186524772
