  62
        -98.94217307
 C         -1.6321030184       -1.4964553595       -0.2100780417
 C         -2.7235618460       -0.8940245899        0.4517744962
 C         -3.2317331626        0.3633412260       -0.1204229111
 C         -2.6337874244        0.8828652272       -1.2093395872
 C         -2.9380969906        2.1305897777       -2.0119162474
 C         -3.8437908863        3.2217071165       -1.4478214187
 C         -3.2706820963        3.9641941102       -0.2412836262
 H         -2.4161042413        4.5601886054       -0.5719464044
 H         -4.0339916901        4.6515243061        0.1312920939
 C         -2.7905337943        3.0847306582        0.9111081715
 H         -2.4172020851        3.7451053592        1.6999758373
 H         -1.9403613276        2.4794083646        0.5854656978
 C         -3.8562830427        2.1795699596        1.5277268192
 H         -4.7174603689        2.7802006388        1.8283403864
 H         -3.4264917393        1.7363099121        2.4306958804
 C         -4.3473203659        1.0262878875        0.6351118424
 H         -4.7782944816        0.2581381108        1.2843122994
 H         -5.1290784223        1.3567881218       -0.0444902895
 H         -3.9838164356        3.9537998279       -2.2479501178
 H         -4.8245312061        2.8172557414       -1.2150726112
 H         -1.9618651424        2.5662565098       -2.2484861233
 H         -3.3627975272        1.7822052414       -2.9601858832
 O         -1.5930090095        0.2547303981       -1.8254185138
 C         -1.0316331444       -0.9009415012       -1.3184775542
 O         -0.0304147953       -1.3028957157       -1.9423771266
 O         -3.2500723118       -1.3818937439        1.4911482119
 C         -0.9874263702       -2.7364581786        0.3880792813
 C          0.4350331677       -2.3821617404        0.7440830088
 C          1.5463354125       -3.1238638703        0.3669086637
 C          2.8248146173       -2.6536044171        0.6187541596
 C          3.0214343787       -1.4248953202        1.2231654004
 C          1.9147046424       -0.6925023700        1.6298328858
 C          0.6407575696       -1.1872097243        1.4237177818
 H         -0.2138400767       -0.5980307905        1.7340500355
 N          2.1065605208        0.6237228332        2.1492918337
 S          1.8267611151        1.7522881075        0.9173042575
 O          2.0574567147        3.0507078207        1.5162828939
 O          0.5218737463        1.5757712878        0.3166074479
 C          3.1228084971        1.3616655276       -0.2316499562
 C          4.3742418398        1.9032516138       -0.0089323615
 C          5.4120700722        1.5635898404       -0.8610318390
 C          5.1816900565        0.6864618789       -1.9107569720
 C          3.9199760928        0.1506198412       -2.1177184215
 C          2.8744177234        0.4875163912       -1.2711958075
 H          1.8834078157        0.0800298017       -1.4071804474
 H          3.7360714533       -0.5347199790       -2.9294825624
 H          5.9898451546        0.4174333551       -2.5725511727
 H          6.3943485215        1.9788745660       -0.7031953844
 H          4.5003824452        2.5798091312        0.8202712957
 H          1.4713512540        0.8361849173        2.9084175209
 H          4.0097171947       -1.0234981306        1.3772756408
 H          3.6779411954       -3.2373952617        0.3098981353
 H          1.4107633516       -4.0610231225       -0.1478560421
 H         -1.5467406691       -2.9464918901        1.3116530548
 C         -1.1075488301       -3.9218264922       -0.5441136647
 C         -1.1102804075       -5.3161379362        0.0062499163
 C         -2.3735774107       -4.7231679583       -0.5390831086
 H         -2.7542489185       -5.0901805675       -1.4802513557
 H         -3.1448925378       -4.4265015640        0.1566954628
 H         -0.6257953503       -6.0956914197       -0.5617475803
 H         -1.0264711296       -5.4312332723        1.0762720575
 H         -0.6299910206       -3.7465551876       -1.5014292638
