  62
        -98.94092598
 C         -2.3201321130       -0.8047801570       -0.1443802737
 C         -3.5982746972       -1.1808485898        0.3338161866
 C         -4.7357640064       -0.4623520067       -0.2504765530
 C         -4.5206597415        0.4686507526       -1.1979236059
 C         -5.5793142685        1.2691393469       -1.9071967335
 C         -6.0402149959        2.5148752164       -1.1378851195
 C         -6.9114445675        2.2372205209        0.0878420845
 H         -7.3383868531        3.1923386299        0.4000130451
 H         -7.7396672760        1.5875596836       -0.1965395681
 C         -6.1566799153        1.6227575268        1.2749421857
 H         -5.0826671799        1.7698399650        1.1384072847
 H         -6.4364228005        2.1433574233        2.1935938014
 C         -6.4283005828        0.1347678286        1.4967263321
 H         -7.4773272244       -0.0105311707        1.7636518880
 H         -5.8169238493       -0.2040445603        2.3370099335
 C         -6.1044046279       -0.7529660266        0.2878198511
 H         -6.8558591392       -0.6191773493       -0.4897975845
 H         -6.1181097023       -1.7956892715        0.6140780948
 H         -6.6139649075        3.1325437482       -1.8326668865
 H         -5.1580050173        3.0848782404       -0.8372808183
 H         -5.1411218559        1.5917674856       -2.8540646684
 H         -6.4385698695        0.6327691664       -2.1204577746
 O         -3.2761650316        0.7856632211       -1.6469464949
 C         -2.1460807593        0.1765814831       -1.1196622144
 O         -1.0716551203        0.5881040820       -1.5990485973
 O         -3.7780846026       -2.0704422721        1.2080716808
 C         -1.0930832142       -1.4942097850        0.4220138905
 C         -0.1484475241       -0.4813926982        1.0202338399
 C         -0.6532418535        0.4738558429        1.8994127885
 C          0.1754432720        1.4254994654        2.4599539930
 C          1.5257178885        1.4449025976        2.1576791478
 C          2.0443796942        0.4845954199        1.2975633120
 C          1.2089270156       -0.4745498813        0.7408672025
 H          1.6352855275       -1.2024172814        0.0721460862
 N          3.4235346090        0.4531145927        1.0260492419
 S          3.9898465216       -0.0421646287       -0.4842679766
 O          3.3889342079        0.7431021666       -1.5389271806
 O          3.8548849319       -1.4729194713       -0.5897960566
 C          5.7137651905        0.3815736610       -0.3072612253
 C          6.5328155469       -0.4680326603        0.4123312763
 C          7.8668499458       -0.1316922883        0.5777973667
 C          8.3575234056        1.0417266989        0.0242615886
 C          7.5244091432        1.8831183451       -0.6974497094
 C          6.1885141103        1.5532836412       -0.8652342114
 H          5.5053543001        2.1718847311       -1.4251754259
 H          7.9091293133        2.7926765625       -1.1298855709
 H          9.3964681012        1.3008215336        0.1535461373
 H          8.5184940087       -0.7845091967        1.1358013039
 H          6.1091195743       -1.3728190637        0.8155088318
 H          3.8909228232        1.3017576355        1.3162385620
 H          2.1724846780        2.1948449129        2.5872738854
 H         -0.2330680371        2.1648498976        3.1326224533
 H         -1.7104341222        0.4641286804        2.1287933286
 H         -1.4672620521       -2.1370950960        1.2335407148
 C         -0.4486621010       -2.3706261940       -0.6310909066
 C          0.3133183802       -3.5970762406       -0.2301121674
 C         -1.0199505109       -3.7291039865       -0.9010134369
 H         -1.0543914008       -4.0800414662       -1.9215011446
 H         -1.8652252918       -4.0370889755       -0.3029735366
 H          1.2033263344       -3.8520548236       -0.7860129770
 H          0.3743916380       -3.8224836577        0.8239169472
 H         -0.0869819275       -1.8017857751       -1.4820059953
