  62
        -98.94436963
 C         -1.9546143844       -1.2603602002        0.4304541806
 C         -2.7652356796       -0.9382892652       -0.6852668815
 C         -4.0036874984       -0.2034871944       -0.3848292564
 C         -4.2785772360        0.1397782101        0.8864384507
 C         -5.4790105277        0.9276132992        1.3230604937
 C         -5.1848559053        2.4341498830        1.3358062904
 C         -4.5302896101        2.9472740170        0.0530387948
 H         -4.3982373855        4.0258274196        0.1642442371
 H         -3.5327378612        2.5107886037       -0.0392559702
 C         -5.3284561510        2.6592754233       -1.2261977562
 H         -6.3630352846        2.4250114337       -0.9725942333
 H         -5.3417164759        3.5619518895       -1.8406501317
 C         -4.7526329089        1.5384603499       -2.0936483858
 H         -5.2558845409        1.5675502767       -3.0637343742
 H         -3.6896885592        1.7214673425       -2.2714396321
 C         -4.9110721995        0.1172714657       -1.5390054640
 H         -5.9544983519       -0.0581061143       -1.2692114461
 H         -4.6389538162       -0.5808006823       -2.3360348284
 H         -6.1220257655        2.9671956284        1.5060886888
 H         -4.5150460295        2.6500514164        2.1715406462
 H         -6.3088919032        0.7151076646        0.6519229005
 H         -5.7494158667        0.6112297928        2.3319503023
 O         -3.4567291198       -0.1550018671        1.9264378320
 C         -2.2755926138       -0.8481888500        1.7241963642
 O         -1.6031455955       -1.0306117406        2.7607682883
 O         -2.4817541213       -1.2497479965       -1.8703159489
 C         -0.6569965268       -2.0319299328        0.2498417373
 C          0.3324614116       -1.1605360622       -0.4854109786
 C          0.8352834810       -1.4496164291       -1.7459033787
 C          1.7258205067       -0.5835262246       -2.3589846187
 C          2.1433148706        0.5721723449       -1.7262141898
 C          1.6578141240        0.8616264642       -0.4561125586
 C          0.7602404866       -0.0010595294        0.1520384115
 H          0.3754546932        0.2255220928        1.1390004420
 N          2.1083422914        2.0163477840        0.2091165149
 S          3.7651518437        2.2711821089        0.2319596711
 O          4.0239248231        2.9994196849        1.4543865306
 O          4.1681799983        2.9281675559       -0.9864751895
 C          4.4852578791        0.6396264256        0.3029772965
 C          5.2951566380        0.1985631045       -0.7234903231
 C          5.8069962943       -1.0879792198       -0.6678953421
 C          5.4973941829       -1.9084636707        0.4053806737
 C          4.6863562849       -1.4488168681        1.4319186658
 C          4.1738375724       -0.1628180331        1.3828665556
 H          3.5426233165        0.2239015142        2.1673566354
 H          4.4465875881       -2.0874115992        2.2670754039
 H          5.8898241930       -2.9123228299        0.4444476806
 H          6.4400324429       -1.4471812817       -1.4630534570
 H          5.5060502994        0.8680304929       -1.5413280834
 H          1.7116707669        2.1350676110        1.1297917952
 H          2.8316541741        1.2584737005       -2.1924124388
 H          2.1001120589       -0.8132345195       -3.3446925009
 H          0.5201858667       -2.3446846473       -2.2551186503
 H         -0.2654492827       -2.1958226416        1.2638089974
 C         -0.8974898116       -3.3770321904       -0.3996259592
 C          0.1223829398       -4.4634676506       -0.2431555702
 C         -1.1917829626       -4.5605490593        0.4702574681
 H         -1.9152384966       -5.2845686505        0.1265633291
 H         -1.2090302036       -4.4025750923        1.5390521067
 H          0.3030805831       -5.1258305938       -1.0757991030
 H          1.0014021939       -4.2404775633        0.3423068530
 H         -1.4314651978       -3.3055681996       -1.3389949149
