  62
        -98.94125567
 C          1.8722500034        0.5969599180        0.0192430396
 C          2.5928440130        0.0844409178        1.1279164879
 C          3.6890078613       -0.8428949886        0.8193323354
 C          3.9010055176       -1.2045408646       -0.4588721984
 C          5.0169994817       -2.0928123274       -0.9249611884
 C          6.2598402087       -1.2713496982       -1.2959526492
 C          6.6689198356       -0.2536351438       -0.2310056992
 H          7.5731229637        0.2441926337       -0.5877061148
 H          5.8925353160        0.5108492172       -0.1515509376
 C          6.9304190630       -0.8564414418        1.1564087929
 H          7.0864097886       -1.9323447336        1.0692688104
 H          7.8511559199       -0.4269480529        1.5567723366
 C          5.8293499162       -0.5860692731        2.1835629531
 H          6.2092571335       -0.8637728873        3.1703299575
 H          5.6066812814        0.4837625032        2.2088195160
 C          4.5152611464       -1.3474937919        1.9686687527
 H          3.9004912519       -1.2092524437        2.8630815494
 H          4.7220932941       -2.4138061747        1.8560109468
 H          7.0863210954       -1.9601162006       -1.4801597833
 H          6.0538131548       -0.7321521056       -2.2235437584
 H          4.6766612949       -2.6395066884       -1.8060850023
 H          5.2605579839       -2.8055600846       -0.1392787926
 O          3.1367379790       -0.7598939263       -1.4871302403
 C          2.1088087325        0.1546806668       -1.2837172154
 O          1.5030932111        0.4677696510       -2.3240803208
 O          2.3265821640        0.3860524804        2.3225103407
 C          0.7587946434        1.5888112133        0.3053142995
 C         -0.5038333927        1.1758239079       -0.4079394027
 C         -1.1640218168        1.9702155507       -1.3348728165
 C         -2.3135266356        1.5130268641       -1.9565635620
 C         -2.8321997040        0.2658560603       -1.6643866016
 C         -2.1855272714       -0.5328226925       -0.7288068241
 C         -1.0385331024       -0.0708527676       -0.1031672202
 H         -0.5308946430       -0.6978422753        0.6200746259
 N         -2.7098926070       -1.7977876442       -0.4159578510
 S         -4.3626630352       -1.9396085539       -0.2034578334
 O         -4.5319596496       -3.0587844819        0.6971105663
 O         -5.0110104564       -2.0624123901       -1.4853685639
 C         -4.8687741908       -0.4205498095        0.5845783021
 C         -5.7849665631        0.4049439687       -0.0343531538
 C         -6.1411619275        1.5932935671        0.5831673963
 C         -5.5741788413        1.9355570916        1.8006528733
 C         -4.6579600667        1.0933553161        2.4122356800
 C         -4.3003853753       -0.0970282080        1.8007524534
 H         -3.5946867177       -0.7751647721        2.2534835782
 H         -4.2180702355        1.3604182714        3.3597368923
 H         -5.8479948552        2.8629599890        2.2783545790
 H         -6.8551713022        2.2486316600        0.1110947643
 H         -6.1978947176        0.1017323307       -0.9826444881
 H         -2.1991095804       -2.2934409755        0.2990074592
 H         -3.7136745938       -0.1109952363       -2.1572356127
 H         -2.8092910325        2.1354139190       -2.6856635671
 H         -0.7637127530        2.9361993339       -1.5937724527
 H          0.5803425605        1.4858530487        1.3890833172
 C          1.1412832296        3.0424305962        0.0710132268
 C          2.5660341101        3.4925092978        0.1888120352
 C          1.8882217291        3.4937439978       -1.1468562494
 H          1.6254545725        4.4457096023       -1.5847286089
 H          2.1674579476        2.7439065749       -1.8699848865
 H          2.7688363016        4.4390269125        0.6670187729
 H          3.3151660745        2.7378057404        0.3806896305
 H          0.3916768324        3.7241917435        0.4606284374
