  62
        -98.94016960
 C         -1.7940392060       -0.8157506298        0.5065064604
 C         -1.7438606192        0.3975761125        1.2337354709
 C         -2.1383855835        1.6243314262        0.5204938075
 C         -2.4547567478        1.5522657547       -0.7854746212
 C         -2.9244733346        2.6167770959       -1.7547934009
 C         -2.7475883813        4.0989822315       -1.4357624561
 C         -1.2956414191        4.5696036368       -1.3815091402
 H         -1.2906899166        5.6248784906       -1.0983782511
 H         -0.8625968469        4.4895810171       -2.3819409790
 C         -0.3929052285        3.7955038467       -0.4237175811
 H          0.5965937431        4.2621041438       -0.4463615224
 H         -0.2631837717        2.7723413708       -0.7870442497
 C         -0.8665257911        3.7713601338        1.0292865029
 H         -1.0755431866        4.7908743782        1.3592827668
 H         -0.0423635019        3.3888711711        1.6356314521
 C         -2.1030213402        2.8983724687        1.3162476719
 H         -3.0242601350        3.4577322496        1.1656495758
 H         -2.0692799230        2.6000033738        2.3682389494
 H         -3.2612848304        4.3527151768       -0.5130944295
 H         -3.2440469682        4.6501177664       -2.2391873910
 H         -3.9904881003        2.4219841482       -1.9195485648
 H         -2.4189529312        2.3923694787       -2.6997472770
 O         -2.4427775392        0.3683514566       -1.4601497275
 C         -2.0897274721       -0.8283892693       -0.8573488767
 O         -2.0973402156       -1.8006527755       -1.6355832949
 O         -1.3832184541        0.4591185053        2.4406279682
 C         -1.3367288136       -2.0856423851        1.2077930982
 C         -0.2736166296       -2.7320984029        0.3559633977
 C         -0.3319232674       -4.0248110775       -0.1434089294
 C          0.6560925023       -4.4812065695       -1.0002168563
 C          1.6942545105       -3.6584209544       -1.3960929232
 C          1.7653855059       -2.3638657535       -0.8911645686
 C          0.8104380602       -1.9343803064        0.0114489233
 H          0.8653103710       -0.9324352447        0.4063433891
 N          2.7925459557       -1.4874782768       -1.2674895002
 S          2.5507065151        0.1702986939       -1.2920653417
 O          1.1857504580        0.5341682961       -1.5911922136
 O          3.5556705886        0.6555329915       -2.2157544188
 C          3.0055678888        0.6685225877        0.3557736167
 C          2.0685836784        1.2175520465        1.2065033470
 C          2.4513840971        1.5704243861        2.4910646542
 C          3.7615451841        1.3747515256        2.8986108757
 C          4.6951827760        0.8303870498        2.0289573300
 C          4.3160381633        0.4711173662        0.7461255198
 H          5.0093288831        0.0495998169        0.0376197849
 H          5.7138821928        0.6821275222        2.3489367308
 H          4.0542144299        1.6489935867        3.8998369757
 H          1.7171988384        1.9832265969        3.1651044187
 H          1.0547399295        1.3529184176        0.8613704854
 H          3.3695245406       -1.8022974220       -2.0330071646
 H          2.4362945536       -4.0056376968       -2.0989166775
 H          0.5992372538       -5.4861079197       -1.3909419177
 H         -1.1641089486       -4.6624263926        0.1061474627
 H         -0.8602165926       -1.7254579109        2.1353508698
 C         -2.4501334487       -3.0288355916        1.6317342122
 C         -3.8309752634       -2.5144478835        1.9061338781
 C         -3.5831189424       -3.4023070301        0.7254538202
 H         -3.9535156845       -4.4165223309        0.7631716386
 H         -3.5976756163       -2.9681904253       -0.2615003190
 H         -4.3716683008       -2.9154898015        2.7502359601
 H         -4.0172122031       -1.4657246995        1.7239673023
 H         -2.0876468021       -3.8055548441        2.2983174667
