  62
        -98.94144204
 C         -2.4502372201       -1.0223036885       -0.5440260671
 C         -3.4423489559       -0.4753404681        0.3131971141
 C         -3.9069358981        0.8778987845       -0.0038013163
 C         -3.4005811802        1.5208086232       -1.0711590045
 C         -3.7777871018        2.9002033868       -1.5380748202
 C         -3.0312282310        4.0265771536       -0.8101160895
 C         -3.4749075624        4.2737457010        0.6323385457
 H         -3.0348443454        5.2230113308        0.9440602546
 H         -4.5586745082        4.3902381801        0.6636381687
 C         -3.0436154100        3.1836103682        1.6237266986
 H         -2.2403608145        2.5858886913        1.1843081372
 H         -2.6323606277        3.6503748831        2.5218948205
 C         -4.1697643577        2.2521051219        2.0734716266
 H         -4.9095753652        2.8209412155        2.6409974184
 H         -3.7418818513        1.4969906033        2.7379888556
 C         -4.8862190796        1.5250122463        0.9281210077
 H         -5.5068970092        0.7356379212        1.3588561375
 H         -5.5270937045        2.2186334119        0.3844344700
 H         -1.9608096764        3.8060761315       -0.8280516072
 H         -3.1913381934        4.9451910252       -1.3793820291
 H         -3.5254530645        2.9494525011       -2.5994538994
 H         -4.8529900226        3.0437380677       -1.4281193333
 O         -2.4690354530        0.9577901607       -1.8822016003
 C         -1.9479225615       -0.3031056024       -1.6284305587
 O         -1.0707523720       -0.6436048416       -2.4493144389
 H          0.4409447537       -1.4376658501       -1.0349368143
 C          0.4854145680       -1.7548121224       -0.0031847096
 C         -0.6476136472       -2.2906074396        0.5929261212
 C         -0.5776729332       -2.6676234667        1.9287267081
 C          0.5954697275       -2.5087987350        2.6464953645
 C          1.7197871319       -1.9657875842        2.0505365468
 C          1.6557915217       -1.5797911391        0.7185397844
 N          2.7935519530       -0.9970899346        0.1033786479
 S          3.1326776184        0.5739627671        0.6357814236
 O          3.2563611549        0.5536958722        2.0706515564
 O          2.1671428600        1.5078320868        0.0918496625
 C          4.7297484168        0.8365952986       -0.1086098286
 C          4.8170484235        1.5044323274       -1.3144488092
 C          6.0620827900        1.6672902002       -1.9017792224
 C          7.1909884079        1.1580107263       -1.2782003013
 C          7.0867413554        0.4890829584       -0.0676054575
 C          5.8452324571        0.3238635501        0.5249385323
 H          5.7159034223       -0.1819138358        1.4672125464
 H          7.9671965776        0.0961190690        0.4145844723
 H          8.1581083205        1.2855088653       -1.7383009018
 H          6.1452927097        2.1887703516       -2.8418175092
 H          3.9136439183        1.8902481495       -1.7599282169
 H          2.6584227681       -0.9426974375       -0.8996236633
 H          2.6304873889       -1.8124744675        2.6050631871
 H          0.6329459568       -2.8052304722        3.6838404184
 H         -1.4587180122       -3.0671694627        2.4098544816
 C         -1.9371705746       -2.4081065214       -0.1846655958
 H         -2.6960747366       -2.8278538152        0.4893002075
 C         -1.7863388752       -3.3348636854       -1.3740114890
 C         -1.7602818005       -4.8145873687       -1.1398192304
 C         -2.9487426513       -4.1801896897       -1.7962083700
 H         -3.1078149314       -4.3444569628       -2.8512993781
 H         -3.8620464714       -4.0944722260       -1.2256681268
 H         -1.1008322653       -5.4190146558       -1.7432157711
 H         -1.8682397815       -5.1610013069       -0.1232047736
 H         -1.1541056426       -2.9361375455       -2.1562646795
 O         -3.9229227972       -1.0986014489        1.2968895352
