  62
        -98.94213530
 C         -0.5180600881       -1.8958720898        0.5175254008
 C         -1.4509267257       -1.7350368796       -0.5360519377
 C         -2.6658595377       -0.9740268783       -0.2092812215
 C         -2.8371749494       -0.5092279969        1.0410903967
 C         -3.9530310646        0.3895160156        1.4916383123
 C         -3.6572876199        1.8395975647        1.0547918621
 C         -4.6393290914        2.4021147269        0.0268110026
 H         -5.5767715699        2.6545532600        0.5280930768
 H         -4.2063289581        3.3288736450       -0.3562443154
 C         -4.9691271330        1.4825660237       -1.1531209745
 H         -5.4349817312        2.1043925849       -1.9207189323
 H         -5.7184710692        0.7498023114       -0.8483901538
 C         -3.7793740533        0.7397036931       -1.7757578386
 H         -3.9103638745        0.7329288833       -2.8601484007
 H         -2.8454402210        1.2672108098       -1.5725809215
 C         -3.6408256935       -0.7277894123       -1.3253794324
 H         -4.6231640058       -1.1256033476       -1.0554613175
 H         -3.2630663914       -1.3183445627       -2.1653427886
 H         -2.6455662791        1.8829637146        0.6433555845
 H         -3.6674573892        2.4934230234        1.9289792133
 H         -4.8967992588        0.0475758506        1.0727656551
 H         -4.0079354163        0.3247664258        2.5788700973
 O         -1.9482719060       -0.7390286719        2.0423917174
 C         -0.7545473562       -1.4043242657        1.7989934198
 O         -0.0032020993       -1.4905754220        2.7917492170
 H          0.5328360215        0.0860979446       -0.3293530774
 C          1.3032355799       -0.3599045023       -0.9367508366
 C          1.5801916207       -1.7123505211       -0.8037461531
 C          2.5589800303       -2.2664941766       -1.6210656899
 C          3.2202685439       -1.4819834001       -2.5501831283
 C          2.9301188752       -0.1358497865       -2.6853415677
 C          1.9532035667        0.4276642292       -1.8726420009
 N          1.5990316768        1.7771074828       -1.9872065635
 S          0.9020161779        2.6115204722       -0.7256509623
 O         -0.4582508115        2.1836934944       -0.5135106752
 O          1.0715531951        4.0017773761       -1.0922454880
 C          1.9113541955        2.2401475974        0.6968111912
 C          3.2494267932        2.5799961852        0.6451316591
 C          4.0631598162        2.2671720335        1.7211403466
 C          3.5302538653        1.6155286876        2.8236630114
 C          2.1842192726        1.2881741486        2.8649668463
 C          1.3654232236        1.6070991312        1.7935218950
 H          0.3153222688        1.3572845286        1.7967864094
 H          1.7612258378        0.7670407804        3.7092060660
 H          4.1656256151        1.3605586492        3.6570573504
 H          5.1096945028        2.5247431808        1.6956760716
 H          3.6285688888        3.0891197847       -0.2258371245
 H          2.1905369513        2.3485697841       -2.5698952026
 H          3.4402717675        0.4692688526       -3.4185622337
 H          3.9741944543       -1.9262503480       -3.1820413305
 H          2.7959279416       -3.3145708986       -1.5355072811
 C          0.8363932338       -2.5172325291        0.2393304404
 H          1.4009522006       -2.4523363381        1.1821358627
 C          0.6953300328       -3.9778716769       -0.1424017288
 C          1.7231600969       -4.9809382025        0.2855389705
 C          0.3700964499       -4.9741059090        0.9286951177
 H         -0.3194813798       -5.7723796487        0.6990600831
 H          0.2847341484       -4.6010096205        1.9392398854
 H          1.9636301419       -5.7904983398       -0.3871275118
 H          2.5584343156       -4.6266846860        0.8707599771
 H          0.2205667047       -4.1086615789       -1.1078041572
 O         -1.2699227663       -2.1875198676       -1.6970322941
