  62
        -98.94506588
 C         -0.9022190393       -1.1804761304        0.7208768092
 C         -1.1340823696       -0.4612682798       -0.4776014803
 C         -2.0756067400        0.6627779098       -0.3639434996
 C         -2.5032071800        1.0593422490        0.8468224407
 C         -3.4486688104        2.1959817985        1.1260914014
 C         -4.9290953703        1.8035837381        1.0216306113
 C         -5.4370011303        1.5697724787       -0.4018796588
 H         -6.5261109303        1.5161129783       -0.3475876687
 H         -5.1843919007        2.4304649892       -1.0217207283
 C         -4.9119578299        0.2860715493       -1.0603887296
 H         -4.5118808397       -0.3802958410       -0.2924778100
 H         -5.7399321798       -0.2419744607       -1.5386778798
 C         -3.8415168301        0.5123839702       -2.1285750595
 H         -4.2726100604        1.0668668506       -2.9647594992
 H         -3.5220653498       -0.4637386594       -2.5024401401
 C         -2.5985978903        1.2647118504       -1.6324153992
 H         -1.8150903504        1.1735255511       -2.3876355293
 H         -2.8339148107        2.3182088402       -1.4884527686
 H         -5.0961881999        0.9057475977        1.6215761308
 H         -5.5140620905        2.6121619076        1.4661481318
 H         -3.2496749404        2.5248611480        2.1485489316
 H         -3.2465355707        3.0238626990        0.4460650119
 O         -2.0923559997        0.4594166984        1.9978024503
 C         -1.3410819093       -0.7045618713        1.9584400395
 O         -1.1177628091       -1.2054291519        3.0799933792
 O         -0.6110277896       -0.7383434290       -1.5855299305
 C         -0.1097188289       -2.4748504902        0.7328330184
 C          1.1547901110       -2.3253548893       -0.0750083316
 C          1.4658422112       -3.1057229085       -1.1806730821
 C          2.6586933711       -2.9155008377       -1.8555296721
 C          3.5599802808       -1.9502380177       -1.4467200316
 C          3.2573202506       -1.1648972584       -0.3397250911
 C          2.0642240107       -1.3583454092        0.3361764089
 H          1.8384730306       -0.7504655298        1.2011061192
 N          4.1600697103       -0.1914831484        0.1140229894
 S          3.6191069999        1.2025001610        0.8426100602
 O          4.7437577296        2.1102777515        0.7434110706
 O          3.1590313001        0.9294406401        2.1818981101
 C          2.2849735196        1.8384232412       -0.1555735293
 C          1.1632258495        2.3402225204        0.4701619511
 C          0.1805027592        2.9455250805       -0.2957693285
 C          0.3301357291        3.0264552214       -1.6707300984
 C          1.4527372892        2.4982228121       -2.2876782489
 C          2.4453776895        1.9063113420       -1.5250484393
 H          3.3364311496        1.5051263126       -1.9794458496
 H          1.5596880991        2.5509688928       -3.3590844288
 H         -0.4330088211        3.5039497415       -2.2643443681
 H         -0.6934355109        3.3517599600        0.1872698418
 H          1.0784989696        2.2468593798        1.5421974810
 H          4.9602281702       -0.0299054878       -0.4790659506
 H          4.4902537907       -1.8035950171       -1.9737505216
 H          2.8875750912       -3.5245958272       -2.7167144025
 H          0.7662567914       -3.8481546286       -1.5271363125
 H          0.1878330913       -2.6172758507        1.7854559583
 C         -0.9325680285       -3.6956234502        0.3440205078
 C         -2.4071006584       -3.7475255109        0.6093101379
 C         -1.9013184086       -3.6810905299       -0.7986488121
 H         -1.9824921984       -4.5662434095       -1.4124098826
 H         -2.0163768989       -2.7585126796       -1.3445424016
 H         -2.8322999581       -4.6742940012        0.9643395774
 H         -2.8697466787       -2.8669021013        1.0317644584
 H         -0.3855994782       -4.6189740401        0.5085346172
