  62
        -98.93884708
 C         -1.9080641231       -0.5370207656       -0.5626322767
 C         -2.9406248451       -1.3383834502       -0.0240232242
 C         -4.3106080214       -0.8108740096       -0.1438167439
 C         -4.5019017002        0.3723994457       -0.7527753855
 C         -5.8006632500        1.1095485446       -0.9290857651
 C         -6.0148799522        2.1132041259        0.2167462699
 C         -6.7022514166        1.5398945143        1.4554763076
 H         -6.6727095381        2.3108121841        2.2289597785
 H         -7.7522511928        1.3469146989        1.2256788482
 C         -6.0806477195        0.2576786885        2.0151859074
 H         -6.3937423624        0.1612419282        3.0566318728
 H         -4.9926535668        0.3449508505        2.0115225093
 C         -6.5068370866       -1.0039684899        1.2498462453
 H         -6.8719702684       -1.7502658940        1.9584564514
 H         -7.3464839016       -0.7590206295        0.5996622068
 C         -5.3978564558       -1.6789892206        0.4289113657
 H         -4.8700105311       -2.4033196843        1.0572102758
 H         -5.8546375462       -2.2490447959       -0.3869442682
 H         -6.6213772191        2.9426152767       -0.1527294233
 H         -5.0382408091        2.5202317200        0.4915136204
 H         -5.7187085010        1.6640877629       -1.8662026981
 H         -6.6317978897        0.4147376977       -1.0045664716
 O         -3.4778702805        1.1104658261       -1.2639095342
 C         -2.1622929576        0.6862449883       -1.1816757071
 O         -1.3363503576        1.4695202207       -1.6871309648
 H          1.8482783509        0.3014531732       -1.2226394176
 C          1.5046186853        0.5535519139       -0.2341101361
 C          0.3582477818       -0.0219595170        0.2888716555
 C         -0.0529291134        0.3529953861        1.5666200239
 C          0.6532596969        1.2927172831        2.2901149650
 C          1.7945672591        1.8707364201        1.7608949772
 C          2.2182472375        1.4999533120        0.4913643155
 N          3.3642246786        2.0828781645       -0.0734058486
 S          4.5064594492        1.1363979556       -0.8427337407
 O          5.6736577080        1.9850147037       -0.9381094773
 O          3.9870882681        0.6246350824       -2.0843818154
 C          4.8159301319       -0.1948752619        0.3025056191
 C          4.1560898351       -1.3971168125        0.1502663801
 C          4.3565379316       -2.3933067827        1.0930810429
 C          5.2071363948       -2.1713754089        2.1648328625
 C          5.8661124340       -0.9587459326        2.3011868405
 C          5.6667689496        0.0422690837        1.3648327823
 H          6.1673483074        0.9949265405        1.4275617615
 H          6.5307018135       -0.7910406014        3.1333428121
 H          5.3587442656       -2.9495970145        2.8961006072
 H          3.8463354678       -3.3374783149        0.9873618018
 H          3.5065877044       -1.5345367249       -0.6981814640
 H          3.8107629736        2.7727238386        0.5130517404
 H          2.3443085714        2.6122479038        2.3204323261
 H          0.3164125385        1.5780774006        3.2752890207
 H         -0.9457153895       -0.0977731828        1.9782629564
 C         -0.4740585603       -1.0274433810       -0.4665162490
 H         -0.5236544162       -1.9514438299        0.1283927713
 C          0.0623457837       -1.3635971446       -1.8411063211
 C          1.1096024119       -2.4230519714       -2.0023192557
 C         -0.2943957539       -2.6813327164       -2.4585595894
 H         -0.4980512236       -2.7151309461       -3.5183320391
 H         -0.9063338989       -3.3529951489       -1.8742574527
 H          1.4440657404       -2.9309494565       -1.1101321489
 H          1.8775475109       -2.2788895479       -2.7482429854
 H          0.1002906053       -0.5031580231       -2.5003501064
 O         -2.7264616685       -2.4438958039        0.5432995476
