  62
        -98.94047042
 C         -1.9811470573       -1.2137623042        0.5236773070
 C         -1.9720582004        0.1107761193        1.0362827603
 C         -3.1258894791        0.9511256904        0.7018150030
 C         -4.1307944665        0.4372975814       -0.0298198677
 C         -5.4043679629        1.1430145250       -0.4090442882
 C         -5.2871178392        2.0203917087       -1.6626091691
 C         -4.4905910929        3.3123301876       -1.4772143078
 H         -4.6685251542        3.9286598987       -2.3607209929
 H         -4.8797984767        3.8575192855       -0.6167051762
 C         -2.9783350304        3.1034414452       -1.3172842003
 H         -2.4431259207        3.8114518129       -1.9542868570
 H         -2.7105560043        2.1014287359       -1.6613915755
 C         -2.4572375240        3.2935597574        0.1071456169
 H         -1.3835093196        3.0896927514        0.1008038033
 H         -2.6003209998        4.3321614008        0.4133970710
 C         -3.1153903330        2.3812568157        1.1510729202
 H         -2.5329633696        2.4357235882        2.0740730901
 H         -4.1298772769        2.7213681712        1.3583703555
 H         -4.8393719065        1.4278502172       -2.4639523464
 H         -6.3010933203        2.2842649285       -1.9720105035
 H         -5.7495872963        1.7492237104        0.4291035003
 H         -6.1446833891        0.3637265824       -0.6028618591
 O         -4.1066264403       -0.8347696058       -0.5020249158
 C         -3.0251634500       -1.6784296415       -0.2770942424
 O         -3.1410448902       -2.7839046339       -0.8417759921
 O         -1.0423249164        0.5650947260        1.7533288322
 C         -0.7811101474       -2.0761045593        0.8765410332
 C          0.2908197843       -1.9834239323       -0.1842082802
 C          0.0012109656       -2.2289179941       -1.5221653415
 C          0.9840842998       -2.1103929290       -2.4881109299
 C          2.2754139069       -1.7539897394       -2.1401362763
 C          2.5780537324       -1.5184462659       -0.8065646992
 C          1.5888469494       -1.6360054524        0.1628531786
 H          1.8276554532       -1.4327403671        1.1981417223
 N          3.9002217798       -1.1559351740       -0.4661341033
 S          4.4062316200        0.3855547606       -0.8906434279
 O          3.9229032151        0.6803980829       -2.2143710047
 O          5.8385996049        0.4055561464       -0.7046998248
 C          3.6410618483        1.4526869198        0.3178933856
 C          4.4209210155        2.0200527065        1.3066445539
 C          3.8081200501        2.7798466595        2.2900133210
 C          2.4301333754        2.9351682228        2.2828099103
 C          1.6596707305        2.3531463422        1.2876310297
 C          2.2692722158        1.6121759860        0.2877911791
 H          1.6945804572        1.1525931837       -0.5011776152
 H          0.5845960421        2.4358335921        1.3045763126
 H          1.9481655512        3.5086047167        3.0589174841
 H          4.4031046612        3.2367424447        3.0644906998
 H          5.4861306489        1.8558791911        1.2819077524
 H          4.1271100609       -1.3224026685        0.5047185535
 H          3.0474530024       -1.6397672583       -2.8831231254
 H          0.7424368983       -2.2984338506       -3.5234774846
 H         -1.0042439448       -2.5087885293       -1.7982273381
 H         -0.3735512175       -1.6369078126        1.7975573602
 C         -1.1212319442       -3.5279588762        1.1498308391
 C         -0.2058699321       -4.3400382547        2.0141466277
 C         -1.5559611326       -3.9353894918        2.5240770269
 H         -2.3234588365       -4.6887498616        2.6173885560
 H         -1.6058729922       -3.1667055504        3.2815539451
 H         -0.0414325669       -5.3750969297        1.7572877472
 H          0.6602056365       -3.8485178396        2.4307389495
 H         -1.5939436167       -4.0232857297        0.3121495706
