  62
        -98.93765120
 C         -2.4722404221       -0.9353308806        0.6360355659
 C         -3.5251141496       -0.9387762503       -0.3114865411
 C         -4.7254447489       -0.1721169867        0.0597965865
 C         -4.7588214501        0.4902942559        1.2294400171
 C         -5.8940620861        1.3521759144        1.6989113803
 C         -5.7057804485        2.8111731939        1.2604437454
 C         -5.3672140782        2.9729621023       -0.2215060680
 H         -4.3830901886        2.5384384309       -0.4125063887
 H         -5.2887044120        4.0437346681       -0.4220267415
 C         -6.3910542803        2.3474413837       -1.1790168103
 H         -6.5926698504        3.0544511497       -1.9865483543
 H         -7.3324783524        2.1769412740       -0.6554339772
 C         -5.9321517662        1.0431369760       -1.8334434343
 H         -4.9445842654        1.1848036446       -2.2798838549
 H         -6.6266433467        0.8069489145       -2.6441716840
 C         -5.8731823544       -0.1807287896       -0.9108455361
 H         -5.7267501230       -1.0631930474       -1.5404520036
 H         -6.8226068453       -0.2894521991       -0.3827261297
 H         -4.8929362291        3.2467799019        1.8460788849
 H         -6.6211040835        3.3604859508        1.4882912299
 H         -5.9279043322        1.3114465826        2.7889532462
 H         -6.8283817708        0.9605095459        1.3014181858
 O         -3.7244585586        0.4839846379        2.1081259839
 C         -2.5672705511       -0.2221344506        1.8355706830
 O         -1.7021366306       -0.1473751425        2.7320147998
 O         -3.4938616449       -1.5446971702       -1.4151115999
 C         -1.1679609750       -1.6930569115        0.4411263276
 C         -0.2047574454       -0.9168560018       -0.4261033660
 C         -0.4882558422       -0.6368672926       -1.7584923080
 C          0.4166375148        0.0662418240       -2.5329875101
 C          1.6179290949        0.5007288119       -2.0011238504
 C          1.9118767954        0.2245423703       -0.6727892077
 C          1.0024869945       -0.4841050120        0.1029738204
 H          1.2284177192       -0.6873512657        1.1414204396
 N          3.1234474673        0.6766294505       -0.1202777195
 S          4.5146231479        0.4923960510       -1.0630991574
 O          4.6091024406        1.6173514007       -1.9595014600
 O          4.5200318471       -0.8124361747       -1.6849019055
 C          5.7897897666        0.5952171622        0.1770518965
 C          6.2742496257       -0.5708876217        0.7391103453
 C          7.2494797293       -0.4872197722        1.7202498584
 C          7.7187946422        0.7543286573        2.1223283662
 C          7.2227331492        1.9156835328        1.5487868300
 C          6.2480812131        1.8393549090        0.5665250958
 H          5.8403522048        2.7137067477        0.0866921084
 H          7.5925754664        2.8784342824        1.8625844665
 H          8.4783351558        0.8165937928        2.8855479081
 H          7.6392670187       -1.3883016693        2.1657837995
 H          5.8880659263       -1.5146979682        0.3884637859
 H          3.2670527541        0.3347749259        0.8200561861
 H          2.3337796270        1.0434049129       -2.5978085286
 H          0.1851996961        0.2786849661       -3.5662519793
 H         -1.4267250303       -0.9667499052       -2.1768699563
 H         -0.7238303910       -1.7696346674        1.4428525427
 C         -1.3645153101       -3.0969025565       -0.0980836073
 C         -0.2896692636       -4.1149640235        0.1292094460
 C         -1.5932308109       -4.2240504365        0.8610084735
 H         -2.2809969162       -5.0072279618        0.5799306644
 H         -1.6080151305       -3.9881700184        1.9154026641
 H         -0.0781554658       -4.8240789577       -0.6562515305
 H          0.5815904866       -3.8068655806        0.6876158721
 H         -1.8981623942       -3.1278049375       -1.0381763083
