  62
        -98.94453712
 C          1.6123296797        1.6453804249       -0.6396963074
 C          1.5090051780        0.4142215993       -1.3324626243
 C          2.6164052312       -0.5346215517       -1.1275745733
 C          3.6294336350       -0.2105003802       -0.3065374280
 C          4.7928029542       -1.1000343114        0.0216902248
 C          4.5184587536       -1.9509870479        1.2687404012
 C          3.1779208133       -2.6860949886        1.2408091060
 H          3.1220272690       -3.2935691345        2.1474194769
 H          2.3597404880       -1.9634412434        1.2963136508
 C          2.9668746758       -3.5827656509        0.0131007589
 H          3.9253622184       -3.7982541297       -0.4620280280
 H          2.5462771197       -4.5339348036        0.3464711961
 C          1.9974832280       -3.0060469396       -1.0203081761
 H          1.0909637569       -2.6733899639       -0.5079287874
 H          1.7146854939       -3.8070407264       -1.7092716646
 C          2.5406354817       -1.8436829995       -1.8618621918
 H          3.5162155171       -2.1116903208       -2.2739395945
 H          1.8485503556       -1.6822549871       -2.6937075476
 H          5.3281564169       -2.6760282699        1.3743358697
 H          4.5308961296       -1.2977599122        2.1444913523
 H          5.0008443945       -1.7443986760       -0.8304867654
 H          5.6634080122       -0.4687518086        0.2095339217
 O          3.6925630094        0.9763397748        0.3512093309
 C          2.6857507516        1.9159857258        0.2131120002
 O          2.8628069289        2.9549545369        0.8824636157
 H         -0.6699365704        0.4911193360        0.1166632963
 C         -0.9369942168        1.3277894323        0.7381077618
 C         -0.3979740377        2.5766168351        0.4633102593
 C         -0.7320994624        3.6466292434        1.2834740140
 C         -1.5752291518        3.4595268636        2.3652662557
 C         -2.0911151972        2.2088870387        2.6502464050
 C         -1.7655566647        1.1301531600        1.8317946856
 N         -2.2855439301       -0.1367259284        2.0968547623
 S         -1.7920259027       -1.5682546029        1.3952497998
 O         -2.2892354542       -2.5792839025        2.3055792950
 O         -0.3728022023       -1.5890436389        1.1414152408
 C         -2.7508127846       -1.6330905232       -0.1042608446
 C         -4.0933380493       -1.9330966259        0.0391871759
 C         -4.9014213215       -1.9683689597       -1.0838764572
 C         -4.3567848321       -1.7019069053       -2.3318085137
 C         -3.0095564602       -1.4066700983       -2.4590901188
 C         -2.1929799855       -1.3705626424       -1.3378602316
 H         -1.1447733098       -1.1304871930       -1.4301882147
 H         -2.5772218052       -1.1968331727       -3.4243297260
 H         -4.9844600963       -1.7258918606       -3.2087574846
 H         -5.9494886915       -2.2011206331       -0.9850181989
 H         -4.4708776867       -2.1461548691        1.0256613839
 H         -2.7632336311       -0.2556018750        2.9752915513
 H         -2.7337345474        2.0612203860        3.5046260512
 H         -1.8240740517        4.2950735608        3.0019594472
 H         -0.3078841084        4.6200213201        1.0854996281
 C          0.5549541432        2.7388207242       -0.6943015279
 H          1.1021879876        3.6829502468       -0.5379544252
 C         -0.1534930378        2.8444003939       -2.0365925682
 C         -1.5571726423        2.3814698800       -2.2695015314
 C         -1.2539877889        3.8471935113       -2.2224738770
 H         -1.2860237040        4.4146443467       -3.1401428687
 H         -1.5778651819        4.3956679775       -1.3507491086
 H         -1.7777125651        1.9241183066       -3.2214394171
 H         -2.0953928116        1.9418247010       -1.4441219440
 H          0.5358931418        2.7194255244       -2.8649434488
 O          0.5610188466        0.1031088426       -2.0975148276
