  62
        -98.93765693
 C          1.0040418624        1.4812015074       -0.1104039509
 C          1.8484487082        1.0003905179        0.9208432682
 C          2.8259554606       -0.0466454280        0.5694577952
 C          2.8436923446       -0.5123542139       -0.6929501611
 C          3.7637229562       -1.5367770128       -1.3030328681
 C          5.1703914689       -0.9822876851       -1.5781803123
 C          5.7702508127       -0.1612680019       -0.4400098051
 H          6.7210281759        0.2479484325       -0.7918750040
 H          5.1149169245        0.6842948657       -0.2236963020
 C          6.0426519923       -0.9360472811        0.8473267602
 H          6.7108230871       -1.7717868637        0.6283465647
 H          6.5696039336       -0.2603504887        1.5257671906
 C          4.8099137049       -1.4737131059        1.5783627325
 H          5.1277439432       -1.7561168856        2.5862057103
 H          4.4394494673       -2.3805015434        1.1074964146
 C          3.6802514662       -0.4619021507        1.7425958797
 H          2.9793158677       -0.8365880221        2.4978170075
 H          4.0866573164        0.4631854142        2.1671003108
 H          5.8305835735       -1.8189710061       -1.8133562001
 H          5.1150637444       -0.3390866788       -2.4599475255
 H          3.8174024066       -2.4207101985       -0.6745960071
 H          3.3167872950       -1.8304704400       -2.2553026988
 O          1.9869635563       -0.0483112024       -1.6442736791
 C          1.0579322865        0.9458020845       -1.3967741011
 O          0.3644184926        1.2381496241       -2.3905226536
 H         -1.5122677571        0.9891442538       -1.2438324128
 C         -1.9673991005        1.1969411577       -0.2865546017
 C         -1.3107087039        2.0282886073        0.6111632829
 C         -1.9092617785        2.2814413753        1.8390905277
 C         -3.1329757929        1.7164090902        2.1584432326
 C         -3.7820726681        0.8852842526        1.2623581088
 C         -3.1888045013        0.6267393199        0.0338966396
 N         -3.8182936119       -0.2603543108       -0.8739451036
 S         -3.7513434209       -1.8635493620       -0.3889128291
 O         -4.1151162651       -2.6470812354       -1.5468638249
 O         -4.5829855665       -2.0218148049        0.7765783085
 C         -2.0437714609       -2.1509880038        0.0433460545
 C         -1.1797416077       -2.6241776950       -0.9233347772
 C          0.1526050717       -2.8159028934       -0.5961811965
 C          0.5985726325       -2.5167806477        0.6816487662
 C         -0.2771040201       -2.0223439609        1.6352847589
 C         -1.6127384927       -1.8392718820        1.3174554324
 H         -2.3245165390       -1.4703252731        2.0376907133
 H          0.0776739865       -1.7733372932        2.6226761849
 H          1.6348501047       -2.6672992905        0.9380422495
 H          0.8387996476       -3.1922037649       -1.3378687718
 H         -1.5660103241       -2.8483669395       -1.9050058691
 H         -3.4287009151       -0.1916657158       -1.8050301939
 H         -4.7218021220        0.4150371664        1.5021882436
 H         -3.5837360283        1.9206863533        3.1176526368
 H         -1.4006490023        2.9116099798        2.5537296803
 C          0.0400212678        2.5952631382        0.2620287003
 H          0.4629141885        3.0313748319        1.1803813058
 C         -0.0208272408        3.7024802954       -0.7821473363
 C         -1.2396145971        4.0231291711       -1.5899343678
 C         -0.8025631755        4.9514862995       -0.4993545660
 H         -0.3737676720        5.9051419505       -0.7670945806
 H         -1.3943687423        4.9698248498        0.4035198169
 H         -1.0922786967        4.3193622139       -2.6174615658
 H         -2.1322147401        3.4383454614       -1.4329223651
 H          0.9305338610        3.8314052847       -1.2886477837
 O          1.8033635085        1.4432972966        2.0995047144
