  62
        -98.94386495
 C         -1.8488684896       -1.1247621304       -0.4800544600
 C         -1.9171743397        0.0251474995        0.3438878901
 C         -3.2325366596        0.3045893193        0.9347991703
 C         -4.2653100996       -0.5241047408        0.6971354803
 C         -5.6575869395       -0.3857571210        1.2509177205
 C         -6.5566993797        0.5677660089        0.4520447007
 C         -6.2276875999        2.0534512990        0.6041263008
 H         -7.0614916400        2.6113680189        0.1732040609
 H         -6.1804493798        2.3070836389        1.6636858908
 C         -4.9302609700        2.4890338692       -0.0910278993
 H         -4.6333506500        1.7280399993       -0.8163443194
 H         -5.1088012402        3.4109108292       -0.6491313092
 C         -3.7603954600        2.7522968493        0.8571789106
 H         -2.8864397801        3.0150409194        0.2562518405
 H         -3.9946758500        3.6028745492        1.5011711107
 C         -3.3855153897        1.5574117492        1.7435408304
 H         -4.1336766996        1.4189758590        2.5238254005
 H         -2.4227162597        1.7672597793        2.2162498504
 H         -6.5096399198        0.2900661490       -0.6035331194
 H         -7.5828239797        0.4081063888        0.7914360408
 H         -6.1033393894       -1.3825530811        1.2234472604
 H         -5.6083578794       -0.0567421011        2.2894292205
 O         -4.1514506995       -1.6321012007       -0.0836396298
 C         -2.9523881595       -1.9477937105       -0.7029336499
 O         -2.9931534794       -2.9762998804       -1.4095287300
 O         -0.9377325397        0.7761479897        0.5796774601
 C         -0.5491080396       -1.4910390201       -1.1692881801
 C          0.5685395505       -1.7117094001       -0.1777009403
 C          0.3000153007       -2.2223294202        1.0882237097
 C          1.3145652808       -2.4155586402        2.0074744096
 C          2.6265134708       -2.1204117900        1.6807481395
 C          2.9101217506       -1.6366308098        0.4122264695
 C          1.8883561104       -1.4347735299       -0.5071572904
 H          2.1289911803       -1.0513904497       -1.4871550604
 N          4.2518241605       -1.3320569796        0.0824110994
 S          4.8535415304        0.0768377804        0.7672875595
 O          6.2130738803        0.1991055906        0.2923234693
 O          4.6730431105        0.0102970202        2.1939125795
 C          3.8438817301        1.3623808803        0.0556521797
 C          2.5562040702        1.5295709401        0.5241179198
 C          1.7264976700        2.4432406801       -0.1066474700
 C          2.2002151298        3.1744492402       -1.1850032000
 C          3.5004888497        3.0030478304       -1.6374454501
 C          4.3290099799        2.0801434505       -1.0205038203
 H          5.3422761799        1.9057163107       -1.3452498304
 H          3.8650697196        3.5773546906       -2.4741166401
 H          1.5492762396        3.8806811002       -1.6767060598
 H          0.7090202100        2.5434440799        0.2360986301
 H          2.2079768703        0.9491969500        1.3630214398
 H          4.4162519104       -1.2990829995       -0.9150290806
 H          3.4274361909       -2.2432669299        2.3911345194
 H          1.0812836410       -2.7998069103        2.9891911296
 H         -0.7221220692       -2.4570173604        1.3524955598
 H         -0.7383031795       -2.4447100401       -1.6848910202
 C         -0.2037078799       -0.4354102100       -2.2036701801
 C          0.4363532301       -0.8161850498       -3.5041770602
 C         -0.9973714200       -0.3815886500       -3.4730221300
 H         -1.2558412102        0.5837561000       -3.8811833499
 H         -1.7628130299       -1.1323205001       -3.6090033700
 H          1.1627724699       -0.1450313096       -3.9378631302
 H          0.6397207302       -1.8624509597       -3.6780516903
 H          0.0814418301        0.5075891400       -1.7509875200
