  62
        -98.94306827
 C         -1.7890075027       -1.3836486218       -0.0643932438
 C         -3.1053758737       -1.2023348915        0.4384754511
 C         -3.8794193397       -0.0997799172       -0.1410290161
 C         -3.3222183803        0.6816066747       -1.0831496859
 C         -3.9804185381        1.8438228715       -1.7757164457
 C         -3.9128233136        3.1593805707       -0.9878175906
 C         -4.8243284822        3.2312717956        0.2379048962
 H         -4.8441155040        4.2737888362        0.5616625845
 H         -5.8410806213        2.9615982185       -0.0497169839
 C         -4.3711241739        2.3577394447        1.4162213952
 H         -3.3245504644        2.0754015015        1.2801311780
 H         -4.4282021857        2.9359592356        2.3411638160
 C         -5.2019207064        1.0912775084        1.6233263632
 H         -4.7712526193        0.5310702827        2.4571984864
 H         -6.2246730792        1.3631802617        1.8939377655
 C         -5.2510362557        0.1611168470        0.4040976481
 H         -5.8923208404        0.5860875326       -0.3680365655
 H         -5.6722537663       -0.7963166931        0.7208098910
 H         -2.8787157591        3.3316102178       -0.6813068818
 H         -4.1957467311        3.9629170260       -1.6717071098
 H         -5.0213957716        1.6004359486       -1.9907075123
 H         -3.4538547065        1.9814585279       -2.7226940379
 O         -2.0596403217        0.4809079424       -1.5383594123
 C         -1.2572214396       -0.5432452570       -1.0446817314
 O         -0.1309596060       -0.5788257202       -1.5725474058
 O         -3.6103252752       -1.9315179811        1.3323896826
 C         -0.9542215061       -2.4826473268        0.5731764236
 C          0.3526262043       -1.8959390323        1.0384166459
 C          0.4069387744       -1.1968500789        2.2405601591
 C          1.5767080313       -0.5825703553        2.6480974760
 C          2.7072129926       -0.6269543594        1.8507150856
 C          2.6539936937       -1.3046457387        0.6397625109
 C          1.4922588395       -1.9593861209        0.2532362446
 H          1.4623720022       -2.4796988337       -0.6911168550
 N          3.7748943475       -1.3074518506       -0.2064978398
 S          4.6616413821        0.1020203449       -0.3449732851
 O          5.2368685494        0.0599947783       -1.6721893143
 O          5.6148217210        0.1713499083        0.7373690973
 C          3.5250509042        1.4753663047       -0.2086048850
 C          2.3198869220        1.4437759334       -0.8806908202
 C          1.4698317193        2.5337853025       -0.7770865835
 C          1.8364854312        3.6344289966       -0.0193041802
 C          3.0537950737        3.6528999568        0.6442289438
 C          3.9053245458        2.5643047486        0.5515255821
 H          4.8552589988        2.5319594522        1.0603696801
 H          3.3389738010        4.5086808119        1.2347715721
 H          1.1698424709        4.4792992450        0.0555199763
 H          0.5202020432        2.5004923958       -1.2883716072
 H          2.0212428789        0.5810256520       -1.4545651614
 H          3.5929013293       -1.7097797769       -1.1144969173
 H          3.6246944430       -0.1434964827        2.1459233100
 H          1.6079257484       -0.0532546972        3.5881398196
 H         -0.4840971641       -1.1333792685        2.8496112768
 H         -1.5337182836       -2.7815493100        1.4611479916
 C         -0.7777476642       -3.7374790843       -0.2682114380
 C         -1.9354639488       -4.2986926880       -1.0374099836
 C         -0.7536626884       -3.7364450057       -1.7659974071
 H         -0.0849532581       -4.4248968681       -2.2626994204
 H         -0.8638500965       -2.7938821890       -2.2780389172
 H         -2.0862037555       -5.3676092829       -1.0419076702
 H         -2.8521118256       -3.7268691970       -1.0370878141
 H         -0.1299900441       -4.4576828804        0.2232016454
