  62
        -98.94534023
 C         -1.9693644018       -0.2466376916        0.4858207513
 C         -1.6294495904        0.9247207125        1.2077650880
 C         -1.6952666405        2.1919663189        0.4676574489
 C         -2.0161178886        2.1706836500       -0.8384999444
 C         -2.0945158808        3.3811490462       -1.7229379294
 C         -0.7531132389        3.6586612979       -2.4140547322
 C          0.4405062615        3.6792346051       -1.4592226533
 H          0.6008716209        2.6672793765       -1.0785979134
 H          1.3242566424        3.9304813395       -2.0507681650
 C          0.3039540982        4.6688969583       -0.2933724218
 H          1.2489305022        5.2045341859       -0.1805651246
 H         -0.4623044476        5.4090537079       -0.5275882269
 C         -0.0056294344        4.0265641559        1.0596680094
 H          0.7146147766        3.2287006826        1.2511115855
 H          0.1332105123        4.7860007115        1.8339103260
 C         -1.4203154805        3.4588571781        1.2301252364
 H         -1.5491822986        3.2041624457        2.2864554337
 H         -2.1547237218        4.2245146948        0.9700770631
 H         -0.5758549607        2.8763421385       -3.1562076209
 H         -0.8244073557        4.6157230166       -2.9351255215
 H         -2.8539148956        3.1985116531       -2.4855615278
 H         -2.3922371397        4.2415773608       -1.1259468521
 O         -2.2815564373        1.0257570326       -1.5135743401
 C         -2.2411331747       -0.2112347397       -0.8838196276
 O         -2.4800374250       -1.1675104105       -1.6447276157
 O         -1.2870951688        0.9128947675        2.4212286700
 C         -1.8868489263       -1.5770699697        1.2183154563
 C         -1.0306428575       -2.5170283396        0.4083196524
 C         -1.4439475676       -3.7507529197       -0.0729277670
 C         -0.6026089140       -4.4960743979       -0.8820462916
 C          0.6430516197       -4.0200467930       -1.2472985862
 C          1.0684989918       -2.7878900397       -0.7615676064
 C          0.2477676910       -2.0745881737        0.0924660472
 H          0.5777710261       -1.1213891585        0.4739488436
 N          2.3191003147       -2.2570132180       -1.1081636009
 S          2.5425986933       -0.6005699437       -1.2288834640
 O          1.3365212882        0.0983641542       -1.6033408496
 O          3.6677801113       -0.4620654050       -2.1305255183
 C          3.0668373331       -0.1349003724        0.4078343016
 C          2.2771086514        0.6901919708        1.1816235579
 C          2.6980533199        1.0248721893        2.4587977452
 C          3.9028710061        0.5331358315        2.9362437788
 C          4.6911804566       -0.2891838915        2.1446628822
 C          4.2715119169       -0.6291301784        0.8689837623
 H          4.8556621124       -1.2594502286        0.2195790317
 H          5.6284176038       -0.6674795144        2.5196622720
 H          4.2267951951        0.7940700406        3.9313353122
 H          2.0739825649        1.6566700028        3.0712962662
 H          1.3404086649        1.0498721159        0.7811700691
 H          2.8145977584       -2.7610501370       -1.8284072569
 H          1.2774324456       -4.5871003872       -1.9115625706
 H         -0.9348288240       -5.4519648106       -1.2583656225
 H         -2.4326537610       -4.1142927315        0.1542377224
 H         -1.3449937557       -1.3391513439        2.1494964299
 C         -3.2246093923       -2.1652907138        1.6364341904
 C         -4.4108579486       -1.2829343510        1.8832302507
 C         -4.4065837002       -2.2238707427        0.7177345211
 H         -5.0449021975       -3.0943799117        0.7624276659
 H         -4.2895792369       -1.8189273601       -0.2748019705
 H         -5.0510098711       -1.5044449072        2.7239368613
 H         -4.2968209834       -0.2267344951        1.6854998764
 H         -3.1003608927       -3.0010856537        2.3183536464
