  62
        -98.94133975
 C         -2.4678436026       -1.2999037713        0.0466209494
 C         -3.0810797851       -0.5197328695        1.0621445048
 C         -3.8143548354        0.6698152821        0.6195479384
 C         -3.8782068318        0.9610228935       -0.6918656106
 C         -4.6022897449        2.1270091440       -1.3079807355
 C         -3.7974784798        3.4339588099       -1.3016686182
 C         -3.6569595927        4.1047799818        0.0653686012
 H         -3.2718983613        5.1110958998       -0.1108472722
 H         -4.6419057108        4.2072195088        0.5220418890
 C         -2.7110721264        3.3796967950        1.0331544454
 H         -2.0715810698        2.6907511680        0.4748830169
 H         -2.0476982662        4.1070095491        1.5070178773
 C         -3.4138364595        2.6113018998        2.1527451890
 H         -3.9373967593        3.3136560111        2.8051696213
 H         -2.6503572792        2.1023325245        2.7466016993
 C         -4.4168900862        1.5576676738        1.6658985006
 H         -5.3145317534        2.0418095529        1.2819481354
 H         -4.6919403800        0.9285930700        2.5159440454
 H         -4.3026459733        4.1307809754       -1.9746863032
 H         -2.8040400808        3.2363372627       -1.7124186397
 H         -4.8066014294        1.8533965365       -2.3453862292
 H         -5.5519814209        2.2809898079       -0.7948145660
 O         -3.2866956436        0.1861636346       -1.6374712920
 C         -2.5480986367       -0.9419922780       -1.2989977832
 O         -2.0418521781       -1.5137584335       -2.2845649618
 O         -3.0263693342       -0.8162124998        2.2850740561
 C         -1.6907031338       -2.5220798324        0.5085376604
 C         -0.2397367910       -2.1594010074        0.6948766629
 C          0.3953100514       -2.3164854167        1.9204482925
 C          1.7135649033       -1.9263358557        2.0859213905
 C          2.4221717900       -1.3699630251        1.0358937954
 C          1.7946391151       -1.2077816963       -0.1923762670
 C          0.4782751578       -1.6058927434       -0.3574794647
 H         -0.0057643903       -1.4711726881       -1.3142726281
 N          2.5048172601       -0.6174441115       -1.2645700024
 S          2.8146355692        1.0266765002       -1.0541918458
 O          1.7861501958        1.6564807176       -0.2556378996
 O          3.0124584571        1.5597712360       -2.3844808812
 C          4.3649678209        1.0431150031       -0.1800374769
 C          4.4330651670        1.5732853104        1.0931822781
 C          5.6508500199        1.5678502478        1.7558610872
 C          6.7713093703        1.0350284543        1.1368204195
 C          6.6860793119        0.5081428914       -0.1436228101
 C          5.4723004020        0.5113391576       -0.8120063629
 H          5.3606097282        0.1175613081       -1.8083697767
 H          7.5597933822        0.0953933207       -0.6215887195
 H          7.7168955451        1.0308051308        1.6555589171
 H          5.7188942809        1.9769882815        2.7510376662
 H          3.5332525900        1.9704153252        1.5351672556
 H          2.0292205010       -0.7419639793       -2.1488353170
 H          3.4473688625       -1.0606229191        1.1585338728
 H          2.1929440751       -2.0526359852        3.0444665346
 H         -0.1583300387       -2.7282056361        2.7515238423
 H         -2.1047171393       -2.7517659547        1.5028595700
 C         -1.9084383464       -3.7447947756       -0.3722407109
 C         -0.8208391730       -4.4109008816       -1.1564546229
 C         -1.3755790415       -5.0779864670        0.0637760449
 H         -1.9989674315       -5.9507324393       -0.0567162614
 H         -0.7538157161       -5.0949483760        0.9462598207
 H         -1.0777827749       -4.8031219856       -2.1287729586
 H          0.1759730979       -4.0021787491       -1.1039643008
 H         -2.8914490160       -3.7417836038       -0.8319092745
