  62
        -98.94406736
 C         -2.4301644759       -1.0912766715        0.2700583635
 C         -2.4674459684        0.2446397116       -0.1970063941
 C         -3.5782646005        1.0625340306        0.3075522056
 C         -4.4609109440        0.5341730150        1.1747705509
 C         -5.6332056536        1.2469918675        1.7926181112
 C         -6.8864007534        1.2714378326        0.9067581337
 C         -6.8132325676        2.2098697496       -0.2983751486
 H         -7.8248847891        2.2945789062       -0.7001501779
 H         -6.5107362603        3.2034572228        0.0338113778
 C         -5.8772579677        1.7323204288       -1.4174301927
 H         -5.6649457127        0.6688240175       -1.2861724475
 H         -6.3775745771        1.8422961689       -2.3822072355
 C         -4.5538121025        2.4925969276       -1.5055366396
 H         -3.9560592675        2.0498212540       -2.3064321038
 H         -4.7461646384        3.5354893361       -1.7674663280
 C         -3.7187614850        2.4590636054       -0.2187451134
 H         -4.1644430149        3.1073261673        0.5356223407
 H         -2.7161569379        2.8288510089       -0.4490967300
 H         -7.0922930618        0.2546052780        0.5647812009
 H         -7.7227158559        1.5866272699        1.5348773471
 H         -5.8727532208        0.7097444089        2.7127794683
 H         -5.3476816273        2.2672793521        2.0501911322
 O         -4.3730622443       -0.7476903547        1.6193077883
 C         -3.3688062274       -1.5907776647        1.1736313943
 O         -3.4137413468       -2.7419360132        1.6523857579
 O         -1.6232920596        0.7327080762       -0.9939868861
 C         -1.3328782025       -2.0340816749       -0.1939558427
 C          0.0053798725       -1.4769439788        0.2262192299
 C          0.2511737716       -1.2992569491        1.5858956755
 C          1.4480785857       -0.7676884887        2.0234852031
 C          2.4273885880       -0.3989476680        1.1163952515
 C          2.1884778267       -0.5610029802       -0.2403610204
 C          0.9876054989       -1.1093137607       -0.6773857080
 H          0.8174839950       -1.2258508522       -1.7360170188
 N          3.1764801904       -0.2022917213       -1.1696271980
 S          4.0533311463        1.2091854541       -0.9514503014
 O          3.2885937398        2.2252453479       -0.2671023918
 O          4.5412420384        1.5499864046       -2.2703866444
 C          5.4299612209        0.6969167755        0.0574393455
 C          6.1536789729       -0.4123842581       -0.3342367083
 C          7.2336672642       -0.8130422548        0.4359547318
 C          7.5732473865       -0.0999016951        1.5760191204
 C          6.8397794706        1.0142548567        1.9535691347
 C          5.7571529510        1.4191949347        1.1882302736
 H          5.1541245266        2.2751383475        1.4472946894
 H          7.1049850366        1.5682927140        2.8397163574
 H          8.4141936470       -0.4140118601        2.1738943856
 H          7.8060810524       -1.6794054642        0.1459957613
 H          5.8600964693       -0.9385973494       -1.2269692637
 H          2.8942676146       -0.3116862701       -2.1328461693
 H          3.3587109953        0.0273909090        1.4511327898
 H          1.6232158877       -0.6363822969        3.0806220252
 H         -0.5181220795       -1.5788199059        2.2933420525
 H         -1.4936458246       -2.9761950755        0.3488237331
 C         -1.4574264720       -2.3003613514       -1.6790426234
 C         -0.8566097546       -3.5392453076       -2.2701859902
 C         -2.3445910988       -3.4144130773       -2.1435661415
 H         -2.9295126733       -3.2679328452       -3.0393058003
 H         -2.8468452493       -3.9978796212       -1.3856638199
 H         -0.4208874224       -3.4829299956       -3.2563768652
 H         -0.3462611383       -4.2139680299       -1.5998947029
 H         -1.4493729966       -1.3926308694       -2.2715950631
