  62
        -98.94515911
 C         -1.4821412904       -0.8464161983       -0.5377277110
 C         -2.5924393105       -0.9939313697        0.3344541986
 C         -3.2762871104        0.2372793597        0.7459472407
 C         -2.8062336101        1.4213801504        0.3140818729
 C         -3.4178989700        2.7558317899        0.6267398552
 C         -4.4475464998        3.1614055820       -0.4370482342
 C         -5.4630776099        2.0653768227       -0.7599023163
 H         -6.1575345998        2.4722903241       -1.4979627856
 H         -4.9442092100        1.2283340835       -1.2323720177
 C         -6.2495302301        1.5520037207        0.4542760928
 H         -6.1743751901        2.2674706692        1.2739159840
 H         -7.3047420301        1.4791766913        0.1829090325
 C         -5.8207581004        0.1693115497        0.9491546304
 H         -5.8022320404       -0.5305687288        0.1100517391
 H         -6.5743019805       -0.1872743114        1.6564202197
 C         -4.4624648705        0.1046022583        1.6594103304
 H         -4.4235481304        0.8566390669        2.4506305617
 H         -4.3745732207       -0.8831934425        2.1214799587
 H         -4.9699199997        4.0541975914       -0.0885569627
 H         -3.9137501797        3.4160615535       -1.3554466837
 H         -3.8890923501        2.7107434083        1.6069117950
 H         -2.6190355599        3.4992473998        0.6541500466
 O         -1.7351370400        1.5296610317       -0.5068214868
 C         -1.0417398702        0.4116214923       -0.9480081887
 O         -0.0856371101        0.6940750635       -1.6967328981
 H          1.3249342096       -0.5493954093       -0.2384661602
 C          1.3288428594       -1.4788016102        0.3052803282
 C          0.3364189993       -2.4193205097        0.0638234864
 C          0.3579534090       -3.6149099609        0.7710126943
 C          1.3412633889       -3.8540778827        1.7145977440
 C          2.3000911390       -2.8962324733        1.9857134058
 C          2.2886792493       -1.6951989521        1.2820143179
 N          3.2513558894       -0.7135483427        1.5492516697
 S          2.9237631897        0.9325774574        1.4919085026
 O          3.6987393296        1.4854786754        2.5860374736
 O          1.5065976297        1.2013236176        1.5197154429
 C          3.6833831999        1.4462696400       -0.0346564665
 C          2.9286444500        1.6915994921       -1.1626213961
 C          3.5773246102        2.0725498741       -2.3286457654
 C          4.9566617902        2.2012883939       -2.3478756050
 C          5.7008532401        1.9525056917       -1.2038743254
 C          5.0606319499        1.5713370298       -0.0371538161
 H          5.5972430898        1.3824596081        0.8777541536
 H          6.7739441801        2.0548130316       -1.2192634951
 H          5.4528070104        2.4985131354       -3.2584160844
 H          2.9917842003        2.2628295857       -3.2141092351
 H          1.8553606600        1.5805110322       -1.1330306664
 H          3.8649633193       -0.9309533142        2.3208523294
 H          3.0510780189       -3.0689646148        2.7417968955
 H          1.3491677487       -4.7862938237        2.2588593923
 H         -0.4146595311       -4.3485429305        0.5944630929
 C         -0.7647371206       -2.1280874177       -0.9297518432
 H         -1.5173530707       -2.9226514178       -0.8292544247
 C         -0.2332099904       -2.1509541853       -2.3481508232
 C         -0.0136926806       -3.4735142342       -3.0176417755
 C         -1.1347584404       -2.5843517732       -3.4633445840
 H         -1.0527808102       -2.0815020615       -4.4149850931
 H         -2.1448778205       -2.8695881435       -3.2070664246
 H          0.8422609695       -3.5855137132       -3.6648695856
 H         -0.2651584508       -4.3643083651       -2.4622542271
 H          0.4701937897       -1.3566313051       -2.5585458417
 O         -2.9967823007       -2.1154707203        0.7463736666
