  62
        -98.93863337
 C         -1.8972426398       -1.0704423600       -0.1266218496
 C         -2.4328591199        0.0834477791       -0.7426091911
 C         -3.8933579699        0.2629156191       -0.6393041613
 C         -4.6312856898       -0.6601997201        0.0053890899
 C         -6.1261111098       -0.7633913000        0.2271426601
 C         -7.0351391599        0.4418900396        0.0008769985
 C         -6.8255714401        1.5951841809        0.9815012870
 H         -7.4544824602        2.4302772904        0.6653246858
 H         -7.1670483500        1.2773556022        1.9698794074
 C         -5.3867329201        2.0845571013        1.1271000963
 H         -4.7677672600        1.2864566019        1.5419358973
 H         -5.3837969702        2.9030391423        1.8520899651
 C         -4.7368308102        2.5992959597       -0.1559383345
 H         -3.7831567203        3.0580324201        0.1194480949
 H         -5.3642628103        3.3739231690       -0.6011586355
 C         -4.4420438701        1.5319343382       -1.2244818530
 H         -5.3188268401        1.3285016873       -1.8346740427
 H         -3.6648626802        1.9241185374       -1.8871511036
 H         -6.9482472100        0.7926982682       -1.0232008020
 H         -8.0609879099        0.0848289896        0.1266406090
 H         -6.4667509497       -1.5790795509       -0.4202121988
 H         -6.2495569297       -1.1157690886        1.2560987806
 O         -4.0671912297       -1.7718391293        0.5638128914
 C         -2.7035487896       -1.9991678092        0.5274689417
 O         -2.3382652595       -3.0414689783        1.1077261231
 H          1.7468900801        0.0700398590       -1.2277924612
 C          1.4158631100        0.4396034102       -0.2722907117
 C          0.3470773201       -0.1469956990        0.3860559391
 C         -0.0471012599        0.3773709626        1.6151996184
 C          0.5934220700        1.4749490934        2.1544596869
 C          1.6538972599        2.0648465627        1.4883464161
 C          2.0639639099        1.5433618311        0.2683763368
 N          3.1311445198        2.1276656702       -0.4333249040
 S          4.3176464699        1.1633903595       -1.1083065728
 O          5.4256314698        2.0630206393       -1.3422835640
 O          3.8077458100        0.4683585978       -2.2616980418
 C          4.7311314201        0.0089842313        0.1863317088
 C          4.2147051103       -1.2699765088        0.1582915305
 C          4.4897691204       -2.1254230974        1.2137050717
 C          5.2705037204       -1.6891312258        2.2726354711
 C          5.7872660202       -0.4022228858        2.2829254493
 C          5.5128117601        0.4583678928        1.2330223882
 H          5.9040326200        1.4622403728        1.1982847468
 H          6.3987261302       -0.0682415646        3.1056379889
 H          5.4791956405       -2.3576098047        3.0929764320
 H          4.0907966905       -3.1273411174        1.2064024831
 H          3.6153557803       -1.5736677300       -0.6839665490
 H          3.5379942097        2.9313300409        0.0224963249
 H          2.1505695398        2.9286072833        1.9034049949
 H          0.2672537000        1.8756242947        3.1024207364
 H         -0.8771344998       -0.0824151468        2.1348253491
 C         -0.4026974597       -1.3326823298       -0.1701427393
 H         -0.2276481196       -2.1931611089        0.4924671219
 C          0.0150930603       -1.7100953617       -1.5759796788
 C          1.1495537504       -2.6629423918       -1.7977716275
 C         -0.2589094896       -3.0987093124       -2.0668940469
 H         -0.5751207896       -3.2305642838       -3.0907797067
 H         -0.7235232195       -3.7853351815       -1.3739160259
 H          1.6359832605       -3.0687381606       -0.9233522870
 H          1.8090990103       -2.4939918029       -2.6364845177
 H         -0.1177842498       -0.8996424327       -2.2840846798
 O         -1.7300927600        0.9288331384       -1.3558123923
