  62
        -98.93811879
 C          2.4698894104       -0.8402358781       -0.8111265565
 C          3.5271057006       -0.8900181382        0.1305300396
 C          4.6007496157        0.0946538405       -0.0649269240
 C          4.5373442366        0.9726780100       -1.0812661157
 C          5.5667839836        2.0164608541       -1.4199030380
 C          5.4321479341        3.3150610164       -0.6129112322
 C          5.8502816453        3.2158617107        0.8546533607
 H          6.8478998844        2.7802933404        0.9186667442
 H          5.9151165661        4.2357618938        1.2389181377
 C          4.8800259047        2.4174096814        1.7365919144
 H          4.6930401180        2.9661666106        2.6624340125
 H          3.9192869151        2.3179446093        1.2257439453
 C          5.3777104851        1.0259938399        2.1277145346
 H          4.5968950714        0.5358430396        2.7148212668
 H          6.2655654012        1.1176823879        2.7573704424
 C          5.7152588197        0.1190101453        0.9374411714
 H          6.6428463318        0.4445055168        0.4671878886
 H          5.8492253268       -0.8993216258        1.3103307222
 H          6.0607752430        4.0656919686       -1.0975491525
 H          4.3969475586        3.6586851491       -0.6739638149
 H          6.5661054730        1.6027711792       -1.2814491874
 H          5.4317813767        2.2531770398       -2.4775062873
 O          3.4994578657        0.9955387109       -1.9593814692
 C          2.4438806270        0.1104602785       -1.8361410125
 O          1.5521828181        0.2587791704       -2.6972143332
 H         -1.0523884020       -0.5279275338       -1.2051147021
 C         -0.8826248168       -0.6762401261       -0.1462750797
 C          0.2828713512       -1.3056932316        0.2679048750
 C          0.5026375950       -1.4709488430        1.6308451127
 C         -0.4285834708       -1.0172817370        2.5476316901
 C         -1.5907878983       -0.3917203514        2.1313107412
 C         -1.8166080027       -0.2156513676        0.7726869342
 N         -2.9868644316        0.4416436025        0.3335439852
 S         -4.4547723245       -0.2017739109        0.8752535156
 O         -4.6072808636        0.1175708511        2.2715295451
 O         -4.5388130818       -1.6055594058        0.5339132852
 C         -5.6150198744        0.7419007257       -0.0923212844
 C         -6.1996608049        0.1687972594       -1.2051813086
 C         -7.0857020803        0.9220860322       -1.9594067416
 C         -7.3673335758        2.2288867625       -1.5911203627
 C         -6.7717524494        2.7903167481       -0.4711373379
 C         -5.8861678398        2.0424224936        0.2880037593
 H         -5.4065945098        2.4337191612        1.1698375989
 H         -6.9954353174        3.8060729876       -0.1875373159
 H         -8.0573341548        2.8127546161       -2.1796186106
 H         -7.5520009968        0.4875869770       -2.8290155670
 H         -5.9573631145       -0.8531922855       -1.4493792287
 H         -3.0083925375        0.5078183562       -0.6763839334
 H         -2.3267703698       -0.0474460442        2.8393824319
 H         -0.2474915805       -1.1511894675        3.6037394511
 H          1.4165767481       -1.9367301036        1.9645317759
 C          1.2758943080       -1.7816440283       -0.7659555771
 H          0.7958691006       -1.6939932121       -1.7501096917
 C          1.6626120065       -3.2317257976       -0.5546112956
 C          0.6652792080       -4.2986380357       -0.8882298665
 C          1.8793423764       -4.1117197715       -1.7469408615
 H          2.6622796286       -4.8537584925       -1.7033246771
 H          1.7497165375       -3.6714016724       -2.7251537669
 H          0.6116693367       -5.1700344632       -0.2539158642
 H         -0.2902435159       -3.9845902176       -1.2816669007
 H          2.3042581859       -3.3910349921        0.3010369471
 O          3.6001240280       -1.7071630610        1.0848654799
