  62
        -98.94885621
 C          0.9213098406        1.3412058978        0.2152226120
 C          1.4279146156        0.2339965292        0.9339849006
 C          2.2580312942       -0.7003263280        0.1661613065
 C          2.4354913596       -0.5047050837       -1.1532315299
 C          3.2083282555       -1.4017474201       -2.0824427896
 C          4.7189319396       -1.1308746928       -2.1040516350
 C          5.4765105021       -1.5864003721       -0.8563075551
 H          5.2406007249       -2.6313399144       -0.6525799372
 H          6.5414211687       -1.5319725969       -1.0907851366
 C          5.2009384864       -0.7396593632        0.3939381496
 H          4.7493565747        0.2098705677        0.0975325233
 H          6.1456307988       -0.5044417157        0.8891043514
 C          4.3020108608       -1.4125756723        1.4308715939
 H          4.1516375213       -0.7127799564        2.2566315329
 H          4.8011279099       -2.2997611089        1.8265684773
 C          2.9205515180       -1.8249055557        0.9039704863
 H          3.0063086357       -2.7041494145        0.2648636171
 H          2.2905614320       -2.0708853845        1.7617402831
 H          5.1317424253       -1.6569648940       -2.9679805466
 H          4.8785163882       -0.0612874607       -2.2591355956
 H          3.0267082754       -2.4446738965       -1.8197171673
 H          2.8078870833       -1.2251880023       -3.0834271836
 O          1.9019706174        0.5541966252       -1.8166736504
 C          1.1370109246        1.5014878139       -1.1539245130
 O          0.7229613435        2.4259592491       -1.8803149463
 O          1.1896049545        0.0300317903        2.1550375192
 C          0.0226871435        2.3349031669        0.9308598999
 C         -1.3333192755        2.3188823143        0.2696835093
 C         -2.0286028056        3.4581874447       -0.1111154220
 C         -3.2374330614        3.3458727053       -0.7773224708
 C         -3.7642475343        2.1070182278       -1.0919989218
 C         -3.0833325001        0.9601307858       -0.6974155614
 C         -1.8984824884        1.0769537554        0.0072381230
 H         -1.3725868798        0.1848986219        0.3140129841
 N         -3.5828262310       -0.3181962967       -0.9836401552
 S         -2.5321542547       -1.5986543755       -1.2198576884
 O         -1.3018463343       -1.1973717173       -1.8622843138
 O         -3.3271434642       -2.5769882222       -1.9346560926
 C         -2.2230472757       -2.2110705709        0.4223635353
 C         -3.2964593773       -2.3602576661        1.2785974572
 C         -3.0728311757       -2.8624638210        2.5500209338
 C         -1.7883772460       -3.2117928248        2.9388610541
 C         -0.7232915229       -3.0628952486        2.0648337890
 C         -0.9393050837       -2.5564731363        0.7931116863
 H         -0.1332452720       -2.4050570728        0.0907181949
 H          0.2759558456       -3.3298797050        2.3690487250
 H         -1.6132249857       -3.6006184242        3.9295411012
 H         -3.8982427311       -2.9784619903        3.2337865997
 H         -4.2790948097       -2.0792266369        0.9386381418
 H         -4.3724087235       -0.3446304156       -1.6118211024
 H         -4.6884978069        2.0234902768       -1.6430327572
 H         -3.7661559651        4.2382268931       -1.0765835482
 H         -1.6180231713        4.4327769555        0.0959453333
 H         -0.0836628223        1.9491635913        1.9558401470
 C          0.6605774829        3.7061101036        0.9860099545
 C          0.3289555314        4.6478010264        2.1040519089
 C          1.6741856631        3.9901765564        2.0524890192
 H          2.5351213221        4.5902071620        1.7986125639
 H          1.8860215464        3.1990848841        2.7568654740
 H          0.2681260050        5.7036457758        1.8876636865
 H         -0.3718770059        4.3082556257        2.8514025209
 H          0.8408604716        4.1199818154        0.0001265925
