  62
        -98.94513120
 C         -2.4559985072       -1.1952824711       -0.0784785020
 C         -3.5503956519       -0.8370330229        0.7488027985
 C         -4.4489239451        0.1973794100        0.2222167131
 C         -4.1915560273        0.7395676705       -0.9820309718
 C         -4.9863922535        1.8462937636       -1.6108994908
 C         -4.4118209631        3.2210619966       -1.2412426647
 C         -4.1565085187        3.4027167178        0.2551136298
 H         -3.3598452225        2.7221207191        0.5654229226
 H         -3.7822808934        4.4186802501        0.3989729973
 C         -5.3898470496        3.1809039890        1.1420063707
 H         -5.4358142522        3.9818621022        1.8828307513
 H         -6.2960123353        3.2451863116        0.5386347441
 C         -5.3872217504        1.8600610869        1.9136772467
 H         -4.4386582337        1.7489410904        2.4449887992
 H         -6.1803935498        1.9035539301        2.6646511665
 C         -5.6201672282        0.5971887210        1.0748559787
 H         -6.5168150460        0.7206496677        0.4644165293
 H         -5.7853611909       -0.2345596292        1.7657859191
 H         -3.4633424224        3.3530845848       -1.7675907826
 H         -5.1039500485        3.9895582994       -1.5903473532
 H         -4.9466712295        1.7257072963       -2.6947848346
 H         -6.0219311159        1.7738641241       -1.2841951925
 O         -3.1369478067        0.3672103988       -1.7505094119
 C         -2.2365617408       -0.5967325491       -1.3191298795
 O         -1.3165398623       -0.8258827715       -2.1286666800
 O         -3.7651649021       -1.3604952374        1.8741865727
 C         -1.4813357118       -2.2393557659        0.4428074739
 C         -0.1726318023       -1.5484849997        0.7343381638
 C         -0.0308115640       -0.8377252434        1.9233957454
 C          1.1272377774       -0.1326572156        2.1903114385
 C          2.1648531097       -0.1122300273        1.2738811161
 C          2.0253937547       -0.8023048107        0.0779844458
 C          0.8701872275       -1.5299013351       -0.1780247338
 H          0.7714450388       -2.0511029948       -1.1169666657
 N          3.0670260088       -0.7776103175       -0.8653767423
 S          3.7681105320        0.7023845268       -1.2347199273
 O          2.8475170649        1.7998273093       -1.0461588082
 O          4.3157336031        0.5406922135       -2.5642149779
 C          5.1137891138        0.8257622175       -0.0728013858
 C          5.2582643247        1.9633610837        0.6968433455
 C          6.3199072060        2.0419521146        1.5849768654
 C          7.2142585702        0.9875640544        1.6865094312
 C          7.0567330072       -0.1471984172        0.9046878126
 C          5.9987341887       -0.2312349276        0.0138899411
 H          5.8422321526       -1.0933400994       -0.6124599832
 H          7.7535866382       -0.9656281487        0.9869358877
 H          8.0385910514        1.0507687227        2.3790883161
 H          6.4435361846        2.9235623860        2.1931883330
 H          4.5345396701        2.7556489292        0.5885395017
 H          2.8501470657       -1.2857006723       -1.7111761328
 H          3.0658968949        0.4459844941        1.4689141791
 H          1.2244282073        0.4099547910        3.1184142660
 H         -0.8497979961       -0.8352915648        2.6292970911
 H         -1.9071413509       -2.5815399811        1.3956365129
 C         -1.3589144234       -3.4261014899       -0.4890532446
 C         -0.7231483012       -4.6873522724        0.0122562618
 C         -2.1994266698       -4.6409121076       -0.2396367967
 H         -2.5959853675       -5.1748612282       -1.0902121373
 H         -2.8640420615       -4.6219071223        0.6115071202
 H         -0.1038680022       -5.2573435599       -0.6633124185
 H         -0.3837575599       -4.6982671018        1.0368266541
 H         -1.1911046662       -3.1474184165       -1.5223515449
