  62
        -98.94397772
 C          1.7964121116        1.1759291527        0.4046830106
 C          1.9886200199        0.2529506726       -0.6513731889
 C          3.3812928387        0.0543463624       -1.0744288826
 C          4.3674657024        0.7569710713       -0.4879477658
 C          5.8315415200        0.6820168459       -0.8272927667
 C          6.5753305026       -0.4656659348       -0.1306778844
 C          6.2605143785       -1.8636401807       -0.6645937604
 H          6.3887056133       -1.8755986175       -1.7473609218
 H          7.0027350692       -2.5432453044       -0.2411609708
 C          4.8594066238       -2.3782010946       -0.3051511250
 H          4.4504689316       -1.7826700000        0.5143399123
 H          4.9293508984       -3.4078145958        0.0529156895
 C          3.8633698229       -2.3699124492       -1.4650965364
 H          2.8955864228       -2.7140944638       -1.0898017427
 H          4.1928052057       -3.0698559026       -2.2364221264
 C          3.6565628313       -0.9931853293       -2.1102353308
 H          4.5267717584       -0.7224331600       -2.7079583544
 H          2.7836705485       -1.0505755289       -2.7653822779
 H          7.6451967414       -0.2846093463       -0.2568200942
 H          6.3554033727       -0.4263424546        0.9386535254
 H          5.9534561387        0.5938931059       -1.9071189028
 H          6.2743368651        1.6259879969       -0.5024629939
 O          4.1351160981        1.6596288564        0.5020604998
 C          2.8551998056        1.8703176495        0.9897270105
 O          2.7909751727        2.6890433122        1.9291654508
 O          1.0513229496       -0.3706156102       -1.2140806796
 C          0.4013368897        1.4287551329        0.9467891733
 C         -0.2057376371        0.1371938031        1.4388061201
 C          0.5302491303       -0.6579467645        2.3143881445
 C          0.0088399315       -1.8379660535        2.8062312108
 C         -1.2583205896       -2.2526891355        2.4337107198
 C         -2.0043827348       -1.4660553601        1.5661553152
 C         -1.4796218693       -0.2748364932        1.0811979578
 H         -2.0756133040        0.3219182668        0.4123678785
 N         -3.3098330212       -1.8354925784        1.2023777435
 S         -3.7703497800       -1.7775636185       -0.4102602556
 O         -4.9472477000       -2.6203308977       -0.4695248753
 O         -2.6884747357       -2.1409999612       -1.2936395101
 C         -4.2700042251       -0.0919404990       -0.6852137860
 C         -3.7503546165        0.6037604818       -1.7586300256
 C         -4.1830957682        1.9006430448       -1.9882760286
 C         -5.1223807110        2.4746372235       -1.1445553452
 C         -5.6328803600        1.7618762480       -0.0698678822
 C         -5.2076645472        0.4638794025        0.1628919807
 H         -5.5851307612       -0.1250508148        0.9818530046
 H         -6.3605725805        2.2138552979        0.5844971976
 H         -5.4551258983        3.4847224219       -1.3254797143
 H         -3.7838541566        2.4566925121       -2.8218744582
 H         -3.0116682466        0.1219032317       -2.3801239299
 H         -3.6325475272       -2.6924417817        1.6295413847
 H         -1.6658814090       -3.1779274569        2.8126295923
 H          0.5938353694       -2.4446750001        3.4813109489
 H          1.5218877610       -0.3349843712        2.6025773628
 H          0.5321851033        2.0913532807        1.8152541886
 C         -0.4476272724        2.1435868133       -0.0833162032
 C         -1.5479984242        3.0587989978        0.3606070938
 C         -0.2973821293        3.6259061872       -0.2391922384
 H         -0.3436570298        4.0462719401       -1.2324094595
 H          0.4073448652        4.1224704734        0.4121485256
 H         -2.4575828467        3.0915613024       -0.2194990501
 H         -1.6968940766        3.1771570395        1.4231359870
 H         -0.5951162953        1.5570470455       -0.9832812424
