  62
        -98.94441056
 C          1.8044525293        0.6402569093       -0.1300176755
 C          2.9252773028        1.2849430910        0.4460681648
 C          4.2289039533        0.9350571038       -0.1282056528
 C          4.2941142932        0.0679220948       -1.1550424166
 C          5.5474684649       -0.3708964158       -1.8629418676
 C          6.2869386976       -1.5217524962       -1.1666893913
 C          7.0145812912       -1.1414942604        0.1235108568
 H          7.6570782730       -0.2805412746       -0.0635099002
 H          7.6622479499       -1.9807336422        0.3848494407
 C          6.0867088397       -0.8462713607        1.3102456149
 H          6.4600343868       -1.3576111352        2.2004211279
 H          5.0925752801       -1.2495327766        1.1032504244
 C          5.9572598157        0.6363042922        1.6599184689
 H          6.9235789868        1.0192123338        1.9952558086
 H          5.2509811195        0.7327480171        2.4884299794
 C          5.4567023735        1.5156108683        0.5064051369
 H          6.2436657689        1.6469065035       -0.2357486166
 H          5.1897238368        2.4944100513        0.9121311940
 H          7.0240192402       -1.9100361687       -1.8734325726
 H          5.5717468436       -2.3215249926       -0.9603083138
 H          6.2206477589        0.4790758099       -1.9780502229
 H          5.2410318722       -0.7091100204       -2.8551678328
 O          3.1899411060       -0.5134846285       -1.6962638673
 C          1.9229735063       -0.2614885921       -1.1873062130
 O          1.0085148869       -0.8876126683       -1.7566641781
 O          2.8394781422        2.1091985607        1.3952646363
 C          0.4237131745        0.9406214764        0.4230200484
 C         -0.2507481281       -0.3286711622        0.8792286097
 C          0.4592946577       -1.2192682011        1.6808563578
 C         -0.1182864715       -2.3972432454        2.1112110112
 C         -1.4185886031       -2.7109439248        1.7566964457
 C         -2.1435655089       -1.8213359298        0.9731243514
 C         -1.5622421046       -0.6333794733        0.5492367751
 H         -2.1363452165        0.0351078658       -0.0695338032
 N         -3.4786395111       -2.0918806963        0.6544248570
 S         -4.2556267452       -1.4424032667       -0.6694988840
 O         -5.4689757280       -2.2258403630       -0.7791735417
 O         -3.4222396450       -1.4084751662       -1.8478819056
 C         -4.6863442901        0.2120802891       -0.1685227880
 C         -4.7368447090        1.2013996548       -1.1304558648
 C         -5.1178984137        2.4817134006       -0.7595582151
 C         -5.4388019512        2.7499257882        0.5620676661
 C         -5.3836682660        1.7453013781        1.5159170472
 C         -5.0093580313        0.4620049685        1.1505425659
 H         -4.9560572566       -0.3399852692        1.8674734108
 H         -5.6318540171        1.9578228690        2.5432848745
 H         -5.7312848259        3.7476085491        0.8488936322
 H         -5.1616218511        3.2633014866       -1.5015695030
 H         -4.4650518127        0.9519827930       -2.1442339353
 H         -3.8104094528       -3.0146781925        0.8899488379
 H         -1.8685322398       -3.6361216808        2.0827683712
 H          0.4490960691       -3.0821890003        2.7234204875
 H          1.4781746024       -0.9784311088        1.9525720546
 H          0.5975422812        1.5742256598        1.3061060236
 C         -0.3881248841        1.7279860722       -0.5839395041
 C         -1.4223818415        2.7069618444       -0.1165454293
 C         -0.1414231047        3.1998282724       -0.7177259005
 H         -0.1666240905        3.6384975254       -1.7039374512
 H          0.5987063860        3.6373273929       -0.0638171828
 H         -2.3321241833        2.8076097080       -0.6887671594
 H         -1.5583125782        2.8179331152        0.9484472680
 H         -0.5835806538        1.1665483712       -1.4918910532
