  62
        -98.93701140
 C          2.4728386912        1.4661986985        0.1118903403
 C          2.5584123007        0.4205729982       -0.8381789494
 C          3.6194045204       -0.5759259921       -0.6109528392
 C          4.4206206705       -0.4561156221        0.4625857407
 C          5.4874021302       -1.4310651524        0.8725026208
 C          4.8461169098       -2.6658973820        1.5372606112
 C          5.0269790292       -3.9673108323        0.7557398516
 H          6.0516154591       -4.3212393226        0.8873048716
 H          4.3613525890       -4.7104322619        1.2000301118
 C          4.7492267491       -3.8861956026       -0.7482926984
 H          5.6108120592       -3.4525895030       -1.2581753086
 H          4.6568941187       -4.9122964026       -1.1105007781
 C          3.4934352294       -3.1057936922       -1.1583607685
 H          2.7661041195       -3.0873968317       -0.3457550085
 H          3.0220133291       -3.6339894823       -1.9900652683
 C          3.7614105899       -1.6664969124       -1.6368709589
 H          4.7548046498       -1.6124090929       -2.0910361690
 H          3.0313015999       -1.4175770224       -2.4127788789
 H          5.2690999798       -2.8041202819        2.5333762912
 H          3.7806240099       -2.4677219416        1.6736926613
 H          6.0717302600       -1.7242234529        0.0031740909
 H          6.1418071905       -0.9176000525        1.5771320106
 O          4.2969488010        0.5527941482        1.3628764504
 C          3.3291851814        1.5295784485        1.2150643502
 O          3.3339761118        2.3936286087        2.1138740500
 H         -0.3808685890        1.2582620192       -1.5538477393
 C         -0.7183626389        1.3557721296       -0.5340125793
 C          0.0821845015        2.0052769995        0.3931699504
 C         -0.3514603584        2.0769545900        1.7135649405
 C         -1.5596044786        1.5194025506        2.0897486807
 C         -2.3568552389        0.8731994106        1.1608881410
 C         -1.9227898991        0.7783891201       -0.1541944690
 N         -2.7158596994        0.1136422902       -1.1048132088
 S         -3.3639718199       -1.3800144795       -0.7002514583
 O         -2.5529209901       -2.0720705795        0.2750318318
 O         -3.5741159603       -2.0577998397       -1.9610563281
 C         -4.9497446897       -0.9692496187        0.0004613417
 C         -5.7961112795       -0.1629963586       -0.7354676384
 C         -7.0376454593        0.1590163620       -0.2113615284
 C         -7.4119314194       -0.3304777575        1.0312985418
 C         -6.5528147996       -1.1419485076        1.7561070119
 C         -5.3086579298       -1.4668397682        1.2376925619
 H         -4.6058628700       -2.0898508384        1.7680284220
 H         -6.8453656597       -1.5222465572        2.7216840121
 H         -8.3788422492       -0.0780757370        1.4371259218
 H         -7.7083994591        0.7898993021       -0.7720486885
 H         -5.4686420994        0.1940529410       -1.6975015885
 H         -2.2958943195        0.0835747198       -2.0231056588
 H         -3.2954050090        0.4288653711        1.4494930612
 H         -1.8846668984        1.5866713610        3.1169072507
 H          0.2800431019        2.5615269000        2.4450151103
 C          1.4300477516        2.5710730489        0.0155174502
 H          1.7098499620        3.3071390290        0.7805667699
 C          1.4344935518        3.2564935185       -1.3356893700
 C          0.7400395822        4.5757663287       -1.4832651703
 C          2.2366188822        4.5084550382       -1.5169749505
 H          2.7406063722        4.6643118977       -2.4590998005
 H          2.7849013024        4.8792610282       -0.6631380806
 H          0.2136505922        4.7815863487       -2.4025754603
 H          0.2716792725        4.9923133092       -0.6044141204
 H          1.4004724314        2.5704028983       -2.1716933298
 O          1.8032055406        0.3122885882       -1.8415513793
