  62
        -98.93595400
 C          0.5521405208        1.7525969500       -0.8122430803
 C          1.6663521714        2.1324815994       -0.0209222508
 C          2.8634938009        1.2892010287       -0.1211974512
 C          2.8558991200        0.2275264587       -0.9465661912
 C          4.0007444194       -0.7140375519       -1.2126416316
 C          4.4645232294       -1.5729148421       -0.0207039318
 C          5.6312592200       -0.9740505427        0.7747032278
 H          6.3223244497       -1.7754968231        1.0437763375
 H          6.1834441801       -0.2891878730        0.1299911975
 C          5.2517446009       -0.2575146425        2.0742612079
 H          5.0494989008       -1.0023000323        2.8473104880
 H          6.1160400413        0.3257219971        2.3995502475
 C          4.0342308614        0.6641169382        1.9968309383
 H          3.9939794221        1.2540756082        2.9147554983
 H          3.1194070110        0.0671265387        1.9744201287
 C          4.0203900714        1.6094953481        0.7799134783
 H          3.8806715721        2.6405778982        1.1109926183
 H          4.9607086211        1.5487460076        0.2338101579
 H          3.6169138095       -1.7656587616        0.6351321286
 H          4.7898926387       -2.5314801123       -0.4274384019
 H          3.6565954687       -1.3682470517       -2.0155933815
 H          4.8461117495       -0.1362575024       -1.5934836320
 O          1.7740033295       -0.0954565407       -1.7028046707
 C          0.5921692699        0.6361901499       -1.6491307503
 O         -0.2990453106        0.1881091304       -2.3915909199
 O          1.6615134722        3.1458131694        0.7292428092
 C         -0.6980443787        2.5995335706       -0.6573819698
 C         -1.5323357585        2.0932790111        0.4921982805
 C         -2.0447342676        2.9667376714        1.4443493807
 C         -2.8064693075        2.4900133218        2.4964106010
 C         -3.0787363081        1.1389356720        2.6115576812
 C         -2.5655769490        0.2558505317        1.6676300810
 C         -1.7911752391        0.7362441413        0.6220273407
 H         -1.3971936798        0.0471095910       -0.1087079295
 N         -2.7920069097       -1.1225146582        1.7726273011
 S         -2.9612742907       -2.0533516681        0.3906818212
 O         -3.6597488607       -1.3332393178       -0.6474298985
 O         -3.6121679012       -3.2602255678        0.8606854115
 C         -1.3029931711       -2.4699378890       -0.0973432994
 C         -1.0002455117       -2.5758985792       -1.4391240196
 C          0.2748391479       -2.9751862399       -1.8073701901
 C          1.2170916881       -3.2610031204       -0.8334760304
 C          0.8963788887       -3.1487346202        0.5110396197
 C         -0.3762484309       -2.7528879695        0.8869178702
 H         -0.6604930704       -2.6539349693        1.9216625403
 H          1.6330549189       -3.3722477306        1.2666932894
 H          2.2090203479       -3.5697242009       -1.1234478108
 H          0.5266712875       -3.0461716501       -2.8531594502
 H         -1.7522904819       -2.3217447588       -2.1685820493
 H         -3.4300687395       -1.4033866078        2.5027445414
 H         -3.6775370580        0.7655401423        3.4282181414
 H         -3.1968072868        3.1769018821        3.2318563711
 H         -1.8300310271        4.0220784613        1.3629831106
 H         -0.3323597880        3.6013908804       -0.3790518100
 C         -1.5042993791        2.7559653910       -1.9374521195
 C         -2.7567785896        1.9917188417       -2.2305087690
 C         -2.8325467987        3.4536772817       -1.9137337090
 H         -3.0689405586        4.1435773918       -2.7097494989
 H         -3.2318446782        3.7344795020       -0.9507672489
 H         -2.9141940302        1.6702901417       -3.2490917289
 H         -3.1148183297        1.2770842119       -1.5048658988
 H         -0.8634039093        2.9603175707       -2.7897100098
