  62
        -98.93388756
 C         -2.5580758437       -0.9629309787        0.3198868545
 C         -2.6596884155        0.1729433961        1.1554940767
 C         -3.4342156864        1.3125589612        0.6354664551
 C         -3.9645670619        1.2393805362       -0.5999451579
 C         -4.8296076814        2.2134034766       -1.3725044553
 C         -4.9700989986        3.6644405749       -0.9198800932
 C         -3.6944302340        4.4974554086       -1.0393478292
 H         -3.4745885321        4.6455829695       -2.0996169466
 H         -3.8848886303        5.4785775430       -0.5989653658
 C         -2.4502816852        3.8947683552       -0.3915736784
 H         -2.1917340980        2.9597647950       -0.8933605782
 H         -1.6201464956        4.5872639690       -0.5552665325
 C         -2.5540066843        3.6408805512        1.1110977143
 H         -2.8504433353        4.5602459205        1.6196363757
 H         -1.5573049201        3.3678132609        1.4681691916
 C         -3.5182804768        2.5168976558        1.5289027322
 H         -4.5424022053        2.8767702903        1.5911734658
 H         -3.2286331959        2.1782422439        2.5279480706
 H         -5.3603678059        3.7073329208        0.0926608473
 H         -5.7232769913        4.1201820716       -1.5683707393
 H         -4.4532852991        2.1934593846       -2.4002349980
 H         -5.8276563599        1.7622682924       -1.4024038755
 O         -3.8095317821        0.1329393270       -1.3843781483
 C         -3.1053248824       -0.9827344891       -0.9618652215
 O         -3.0467998043       -1.8971176131       -1.8043277187
 O         -2.1278201942        0.2343257591        2.2978920492
 C         -1.7776740211       -2.1677575634        0.8167827390
 C         -0.5125034349       -2.3019044664        0.0044573919
 C         -0.2310715723       -3.3863652703       -0.8140873000
 C          0.9433483168       -3.4208085475       -1.5473185251
 C          1.8575650911       -2.3865475163       -1.4775461321
 C          1.5913232394       -1.3010898112       -0.6514458081
 C          0.4156803309       -1.2694385571        0.0827512551
 H          0.2027806805       -0.4248665455        0.7265777159
 N          2.5104506828       -0.2357443036       -0.5771133727
 S          4.1406075804       -0.6518226003       -0.4074053262
 O          4.6618535005       -0.9937486905       -1.7069044234
 O          4.2898930503       -1.6611011682        0.6174784589
 C          4.8404874984        0.8938995785        0.1352895176
 C          4.9816254165        1.1312977577        1.4894573583
 C          5.5096401921        2.3432725014        1.9057439809
 C          5.8830681299        3.2925258741        0.9661674835
 C          5.7351617895        3.0394995605       -0.3895224155
 C          5.2089605640        1.8293420056       -0.8126802208
 H          5.0848638283        1.5845088102       -1.8545933230
 H          6.0292404431        3.7791175541       -1.1166366285
 H          6.2944862090        4.2343669367        1.2932097450
 H          5.6284241541        2.5415677888        2.9588113252
 H          4.6879596738        0.3609857279        2.1847231973
 H          2.2418610289        0.4415351676        0.1242395745
 H          2.7759352036       -2.4074998409       -2.0417432395
 H          1.1491782656       -4.2673032835       -2.1852702490
 H         -0.9329023971       -4.2003672321       -0.8872832625
 H         -1.4890848122       -1.9204107724        1.8487548746
 C         -2.6355569322       -3.4134547934        0.8381381624
 C         -2.2481897812       -4.5655858593        1.7147382465
 C         -3.4368296397       -3.7234367355        2.0656258560
 H         -4.4231069600       -4.1451796062        1.9434137345
 H         -3.3540172994       -3.0427954018        2.9004091926
 H         -2.4182349777       -5.5685977542        1.3541287134
 H         -1.3552846617       -4.4586298583        2.3121221525
 H         -3.0909560346       -3.6300998947       -0.1208751067
