  62
        -98.93666491
 C         -2.3385169349       -0.5591220129        0.0453062631
 C         -3.4002532897       -0.3500392001        0.9574995529
 C         -4.3443729272        0.7304992009        0.6294577224
 C         -4.1453072758        1.4638877817       -0.4792373279
 C         -4.9435357889        2.6407449470       -0.9824678909
 C         -6.4733409214        2.5453471874       -0.9068660102
 C         -7.0457368785        1.1342234148       -1.1049780664
 H         -7.8259429186        1.1714833376       -1.8675542198
 H         -6.2668869972        0.4618958326       -1.4688952139
 C         -7.6634840165        0.5561516664        0.1705081167
 H         -8.2492790723        1.3367784112        0.6607736242
 H         -8.3532683783       -0.2451228830       -0.1054362783
 C         -6.6699949271       -0.0281839026        1.1740099756
 H         -6.2401077782       -0.9510007568        0.7750244338
 H         -7.2232619587       -0.2976462189        2.0769342623
 C         -5.5054748188        0.8953674180        1.5675635863
 H         -5.8281453123        1.9315730629        1.6318425944
 H         -5.1452996762        0.5809400990        2.5508907634
 H         -6.8685069154        3.2099414438       -1.6770351647
 H         -6.8166556558        2.9362478836        0.0498732916
 H         -4.6358200757        2.7671287849       -2.0232530860
 H         -4.6132851178        3.5311578577       -0.4395051734
 O         -3.1007308233        1.2352276099       -1.3245010722
 C         -2.1778590846        0.2271862108       -1.0942125743
 O         -1.2907372973        0.1398885825       -1.9642161572
 O         -3.5476570105       -1.0296651516        2.0081627959
 C         -1.3306749729       -1.6562047785        0.3428027410
 C          0.0137157730       -1.0212523810        0.5971057702
 C          0.1928439202       -0.2856672010        1.7663788314
 C          1.3948826372        0.3416619740        2.0293298244
 C          2.4435989896        0.2565313779        1.1292913478
 C          2.2765856797       -0.4749411969       -0.0378100479
 C          1.0700213879       -1.1159207129       -0.2937852529
 H          0.9537310535       -1.6735774491       -1.2097123263
 N          3.3269740243       -0.5479284506       -0.9656455728
 S          4.8766962761       -0.8870584650       -0.4299408933
 O          5.5595759799       -1.4451995729       -1.5767194641
 O          4.8593221992       -1.7007604051        0.7636542606
 C          5.5685581450        0.7131139406       -0.0676527371
 C          5.5302723701        1.6780808597       -1.0549399643
 C          6.0761620184        2.9245550988       -0.7935747009
 C          6.6509347284        3.1827218378        0.4421039727
 C          6.6842826058        2.2023345826        1.4217878881
 C          6.1387332070        0.9536565992        1.1670279046
 H          6.1367911290        0.1629705056        1.9004007331
 H          7.1312864337        2.4051081849        2.3817780395
 H          7.0748798904        4.1540781070        0.6423710838
 H          6.0509798615        3.6897177921       -1.5527440877
 H          5.0764488422        1.4380663191       -2.0021520008
 H          3.1009797009       -1.0605060349       -1.8050521093
 H          3.3826514837        0.7479914088        1.3246184568
 H          1.5183309706        0.9065796746        2.9408457786
 H         -0.6300544251       -0.2108373092        2.4640103548
 H         -1.6713021630       -2.1168073455        1.2807862962
 C         -1.3235908055       -2.7114345456       -0.7423423179
 C         -0.7187409260       -4.0541799165       -0.4638043505
 C         -2.2047694571       -3.9141826031       -0.5972209742
 H         -2.6832799914       -4.3117388158       -1.4797429000
 H         -2.8079092934       -3.9857360494        0.2959589270
 H         -0.1762143279       -4.5516660612       -1.2536081454
 H         -0.3097180174       -4.2209903089        0.5213281539
 H         -1.2110710001       -2.2975718361       -1.7377967591
