  62
        -98.93513803
 C          2.0857753449        1.0316445392        0.5743454107
 C          2.3839489900        0.2910524968       -0.5910469501
 C          2.7737390975       -1.1181409542       -0.3955370760
 C          2.7717934559       -1.6304515404        0.8481429162
 C          3.1300634173       -3.0252769181        1.2965589754
 C          2.5754445324       -4.1843332695        0.4540846683
 C          3.6483648204       -4.9172502831       -0.3537559928
 H          4.5457110946       -5.0041477605        0.2623476449
 H          3.2963732352       -5.9299710631       -0.5620451829
 C          4.0135889811       -4.2714983922       -1.6891354220
 H          3.1905742174       -4.4086782463       -2.3936231182
 H          4.8779180364       -4.8067168545       -2.0891184624
 C          4.3475095184       -2.7799878123       -1.6244314113
 H          4.9483772299       -2.5606257189       -0.7426791355
 H          4.9585493515       -2.5363062345       -2.4960189355
 C          3.1093030998       -1.8711607070       -1.6540121582
 H          3.2407346445       -1.0927996741       -2.4123017486
 H          2.2300176535       -2.4440809950       -1.9629012398
 H          1.7842784369       -3.8189555079       -0.1992756847
 H          2.1196165035       -4.9023274664        1.1380061760
 H          4.2188352822       -3.0995642380        1.3591136110
 H          2.7533163815       -3.0972197424        2.3194823604
 O          2.4475477588       -0.8826348880        1.9437018685
 C          2.0973972175        0.4500305566        1.8393456558
 O          1.8266321516        1.0010316115        2.9277603249
 H         -0.4397665818        0.8587767312        0.4072292633
 C         -0.5588165793        1.6786823057       -0.2875711355
 C          0.4505870827        2.6250680873       -0.4105035102
 C          0.2712246765        3.6744814593       -1.3028655268
 C         -0.8868525903        3.7618389877       -2.0561734974
 C         -1.8875243368        2.8167952186       -1.9321095732
 C         -1.7165955972        1.7603945222       -1.0427548728
 N         -2.6969889253        0.7617963271       -0.9274442909
 S         -2.8175038994       -0.1426165772        0.4870862085
 O         -2.8350935182        0.7284811756        1.6417301177
 O         -1.8081214617       -1.1728837261        0.4708011929
 C         -4.4290726040       -0.8686743912        0.2499043964
 C         -4.5410885934       -2.0187091323       -0.5082151936
 C         -5.7987236189       -2.5606422647       -0.7217542940
 C         -6.9173425954       -1.9465542868       -0.1782772628
 C         -6.7894023996       -0.7942643738        0.5827312156
 C         -5.5346107750       -0.2468695232        0.7994367386
 H         -5.3844365737        0.6411163616        1.3922249372
 H         -7.6600423761       -0.3210364933        1.0072527053
 H         -7.8946404438       -2.3705839866       -0.3462665480
 H         -5.9013728183       -3.4582157703       -1.3099391837
 H         -3.6423208913       -2.4638152526       -0.9025065975
 H         -3.5997118008        1.0412140322       -1.2850875796
 H         -2.7884274255        2.8847311389       -2.5222885821
 H         -1.0125649437        4.5808312031       -2.7479924815
 H          1.0396446360        4.4223590258       -1.4103299090
 C          1.6758595066        2.4871731070        0.4619433276
 H          1.3995428114        2.8030783476        1.4800253953
 C          2.8469339895        3.3257212025       -0.0095778319
 C          3.0023228423        4.7423276754        0.4532894425
 C          3.9210644278        3.6791442938        0.9733052751
 H          4.9479591521        3.6726307963        0.6403320987
 H          3.7894307387        3.3383476160        1.9904214443
 H          2.2530914337        5.1340456149        1.1247941436
 H          3.4033976133        5.4693683310       -0.2366960475
 H          3.1532218159        3.0763517588       -1.0189525708
 O          2.3368812467        0.7835507380       -1.7496533907
