  62
        -98.93779746
 C         -2.0517757721       -0.8337354917        0.5505045611
 C         -2.1418658480       -0.1059498763       -0.6581196959
 C         -2.2700199080        1.3564864514       -0.5371470093
 C         -2.2711213284        1.9221204295        0.6840315792
 C         -2.3105713435        3.3759732063        1.1076332001
 C         -2.7225270267        4.4674810257        0.1229522735
 C         -4.1812432664        4.4075209434       -0.3280132085
 H         -4.8192896879        4.6507742460        0.5251600567
 H         -4.3335959893        5.1763951632       -1.0885053144
 C         -4.6435134529        3.0623079601       -0.8820732351
 H         -5.6921292866        3.1638376705       -1.1742743614
 H         -4.6000377213        2.3069867939       -0.0947634515
 C         -3.8688867327        2.5555455603       -2.0972014887
 H         -4.4053533094        1.6878863657       -2.4898242829
 H         -3.8592323086        3.3228995003       -2.8734552393
 C         -2.4193690816        2.1153049774       -1.8241120479
 H         -2.1174040176        1.4265888522       -2.6187032548
 H         -1.7334779071        2.9591073904       -1.8488340948
 H         -2.0576998611        4.4671740795       -0.7357109292
 H         -2.5743524139        5.4204957341        0.6382646684
 H         -2.9690327609        3.4134508441        1.9815662411
 H         -1.3008732603        3.5996109856        1.4712358798
 O         -2.1740000854        1.1762079564        1.8251293037
 C         -2.0488960599       -0.2004475171        1.7896166402
 O         -1.9525811052       -0.7387051836        2.9137900829
 H          0.4257319985       -0.9324440653        0.5273122878
 C          0.5126020843       -1.8089470845       -0.0985814949
 C         -0.5734489631       -2.6644887317       -0.2317925440
 C         -0.4312038753       -3.7963886400       -1.0241782102
 C          0.7660535169       -4.0492179398       -1.6722195428
 C          1.8364692762       -3.1828703899       -1.5538981247
 C          1.7019527379       -2.0430633054       -0.7666269574
 N          2.7491535979       -1.1114267748       -0.6794215840
 S          2.7695543718        0.0781010137        0.5063514039
 O          2.7499288046       -0.5164769615        1.8262613583
 O          1.7422414475        1.0491355520        0.2217860989
 C          4.3717453808        0.7905358599        0.1834345415
 C          5.4531686035        0.4267212831        0.9630591504
 C          6.6964518179        0.9714502022        0.6814139318
 C          6.8369063803        1.8633898598       -0.3709960227
 C          5.7419704273        2.2199902478       -1.1444097453
 C          4.4962740745        1.6800266829       -0.8672260455
 H          3.6145305961        1.9331667222       -1.4328744595
 H          5.8537577546        2.9159191044       -1.9600882282
 H          7.8050856410        2.2859944321       -0.5882022226
 H          7.5484161596        0.6988451525        1.2830527058
 H          5.2933643834       -0.2633487833        1.7758733914
 H          3.6633973224       -1.5030803830       -0.8545416995
 H          2.7635438306       -3.3755623005       -2.0710770218
 H          0.8647017320       -4.9337098308       -2.2830769657
 H         -1.2581420940       -4.4786263115       -1.1357677785
 C         -1.8451149664       -2.3355918885        0.5160822172
 H         -1.7123582963       -2.6480683424        1.5636526172
 C         -3.0669250906       -3.0296406175       -0.0515462036
 C         -3.4685687465       -4.3868195939        0.4404476477
 C         -4.2773953865       -3.1834504546        0.8179390053
 H         -5.2524300281       -3.0530377268        0.3732576606
 H         -4.2063569034       -2.8140493514        1.8311261712
 H         -3.8935636054       -5.0856621156       -0.2642203351
 H         -2.8579320146       -4.8432276431        1.2050211967
 H         -3.2273361248       -2.7922113273       -1.0968064334
 O         -2.1061803326       -0.6494890106       -1.7936887941
