  62
        -98.94438535
 C          2.3530470852        1.1264405200        0.2410182248
 C          2.3787359470       -0.1469041262       -0.3780332446
 C          3.3772685863       -1.0891222248        0.1451690874
 C          4.1641292246       -0.7330405705        1.1762064422
 C          5.2104142608       -1.5918322620        1.8330679350
 C          6.5664264482       -1.5842837916        1.1139219679
 C          6.6063210603       -2.3510226449       -0.2085567712
 H          7.6565334948       -2.4478622628       -0.4907945510
 H          6.2162968091       -3.3577462558       -0.0553920344
 C          5.8476879217       -1.6726698913       -1.3577327444
 H          5.6695822439       -0.6242643554       -1.1079881450
 H          6.4639128865       -1.6868666497       -2.2594988692
 C          4.5132744277       -2.3294876885       -1.7116970827
 H          4.0455760850       -1.7479812344       -2.5103050387
 H          4.6897032094       -3.3389077101       -2.0899854595
 C          3.5213099720       -2.4126134655       -0.5439455786
 H          2.5412868586       -2.6888578397       -0.9418074572
 H          3.8369199263       -3.1785553840        0.1642687580
 H          6.8651268706       -0.5475480045        0.9430998390
 H          7.2962363504       -2.0333524312        1.7914380353
 H          5.3522339758       -1.1921125289        2.8394569109
 H          4.8452314876       -2.6160284464        1.9146332176
 O          4.0795026726        0.4862584884        1.7711538051
 C          3.1885983401        1.4423284453        1.3156583502
 O          3.2322746880        2.5205652984        1.9409020498
 O          1.6205643613       -0.4917292304       -1.3229542446
 C          1.3779461870        2.2065637927       -0.2027434474
 C         -0.0127138724        1.7730941884        0.1922780570
 C         -0.4433691130        1.9874650947        1.4988218100
 C         -1.6853817722        1.5453749132        1.9130679948
 C         -2.5203768224        0.8720762215        1.0376017081
 C         -2.0918416562        0.6367901161       -0.2611261085
 C         -0.8522582794        1.1018494122       -0.6820165026
 H         -0.5266850315        0.9003688044       -1.6900349814
 N         -2.9260472915       -0.0538612150       -1.1563038874
 S         -3.6897682421       -1.4506213455       -0.6257105278
 O         -2.9344685602       -2.1229238192        0.4062418039
 O         -3.9593002712       -2.2125279041       -1.8258793346
 C         -5.2335951802       -0.8549948389        0.0354372696
 C         -5.6322271923       -1.2335743344        1.3024025467
 C         -6.8416475069       -0.7659209355        1.7928616686
 C         -7.6277007263        0.0665995917        1.0111934294
 C         -7.2147910403        0.4349608998       -0.2606539447
 C         -6.0074822652       -0.0297978159       -0.7570303725
 H         -5.6519606992        0.2315037632       -1.7396023619
 H         -7.8287013428        1.0825992205       -0.8656190210
 H         -8.5673529233        0.4305343927        1.3957361923
 H         -7.1639932719       -1.0519052779        2.7812107109
 H         -4.9850924996       -1.8773615977        1.8769382497
 H         -2.5039371323       -0.2025714374       -2.0619422464
 H         -3.4850846342        0.5139624636        1.3577207445
 H         -2.0074912097        1.7225617496        2.9280133808
 H          0.2184529574        2.4931072309        2.1885200561
 H          1.6333120690        3.0993423608        0.3831824074
 C          1.5265185766        2.5324931459       -1.6741407421
 C          0.9138294262        3.7902333587       -2.2103884332
 C          2.4026164532        3.6764338483       -2.0835918451
 H          2.9920413648        3.5768176751       -2.9828268907
 H          2.8942469097        4.2345303022       -1.3000719952
 H          0.4793367214        3.7727175340       -3.1981720363
 H          0.3930567796        4.4263055469       -1.5108252762
 H          1.5311019388        1.6574476851       -2.3117939031
