  62
        -98.93605473
 C         -2.4900451739       -0.1537616164       -0.5878411823
 C         -2.1658488322       -0.6626228985        0.6935917047
 C         -1.7413792134       -2.0704483812        0.7321891023
 C         -1.6761690357       -2.7736265849       -0.4121175826
 C         -1.2581956175       -4.2119847351       -0.5188283359
 C          0.2450272437       -4.3521129230       -0.7892373380
 C          1.1251634462       -3.5397725763        0.1606002887
 H          2.1647997372       -3.7690686180       -0.0863273365
 H          0.9820002292       -2.4740010412       -0.0340484271
 C          0.8801334490       -3.8141489035        1.6510431313
 H          1.8470555489       -3.8989564328        2.1512068420
 H          0.3645570716       -4.7677405867        1.7753867472
 C          0.1011881314       -2.7110046347        2.3710215993
 H          0.2163623244       -2.8573300665        3.4486343147
 H          0.5336554186       -1.7404797710        2.1163115499
 C         -1.4031229288       -2.6541047462        2.0748313814
 H         -1.8413511911       -3.6489096596        2.1857974208
 H         -1.8635641288       -1.9897341362        2.8119437751
 H          0.4471561712       -4.0174996208       -1.8097296610
 H          0.5086496246       -5.4095619270       -0.7180851291
 H         -1.5205783140       -4.7261239871        0.4039903868
 H         -1.8091331733       -4.6646053393       -1.3456549866
 O         -1.9783292601       -2.2435524639       -1.6271648365
 C         -2.3750041968       -0.9225533721       -1.7437441117
 O         -2.6089400468       -0.5566030683       -2.9163354508
 H         -0.4003005037        1.2243345436       -1.1855879565
 C         -0.6174237571        1.9635106728       -0.4260416541
 C         -1.9401045270        2.1759074518       -0.0409077229
 C         -2.1773866867        3.1417637727        0.9279166964
 C         -1.1261659585        3.8408622050        1.5003499233
 C          0.1838259139        3.5858261662        1.1467555285
 C          0.4371529721        2.6276871485        0.1719692610
 N          1.7513733765        2.3149986039       -0.2282057726
 S          2.0638992223        0.6670276594       -0.4657043111
 O          1.7339238444        0.3229567282       -1.8277210017
 O          1.4273632930       -0.1094026270        0.5707260776
 C          3.8354119587        0.6323151492       -0.2620509304
 C          4.3790569335        0.1203182236        0.9003421253
 C          5.7568122451        0.1259056476        1.0548430312
 C          6.5617696048        0.6437332661        0.0516108061
 C          6.0010827377        1.1536498040       -1.1103937180
 C          4.6249088401        1.1490355901       -1.2722909397
 H          4.1438405604        1.5241135624       -2.1605951425
 H          6.6301184813        1.5527506493       -1.8895738557
 H          7.6332210300        0.6476827674        0.1745345893
 H          6.1949349646       -0.2730029900        1.9554285424
 H          3.7124773340       -0.2755693804        1.6497751503
 H          2.4453888992        2.7282263749        0.3812788914
 H          0.9994837548        4.1121833211        1.6188411144
 H         -1.3373133162        4.5830030478        2.2555994994
 H         -3.1721792487        3.3512901789        1.2754844449
 C         -2.9383724050        1.2951207994       -0.7558639215
 H         -2.8221240440        1.5072023438       -1.8332244433
 C         -4.4331374645        1.3636671284       -0.4805232010
 C         -5.0599090384        1.5439983915        0.8659606717
 C         -5.2176252408        2.6063365622       -0.1827707121
 H         -6.1847999832        2.7053581096       -0.6535481721
 H         -4.6927033110        3.5412953495       -0.0796444824
 H         -5.9178876767        0.9319448325        1.1045595746
 H         -4.4048517334        1.7036989177        1.7066204110
 H         -4.9300236488        0.6486907731       -1.1342978734
 O         -2.2443075123        0.0118764241        1.7517590565
