  62
        -98.94067656
 C         -1.5044189387       -1.2072458346       -0.0189608530
 C         -2.5824118863       -0.9233561220        0.8550508863
 C         -3.3338085656        0.3179435953        0.6035568963
 C         -2.9582906230        1.1225834947       -0.4079133790
 C         -3.4871639482        2.4687052946       -0.8571388071
 C         -4.8533954564        2.9662147303       -0.3918052598
 C         -6.0413430160        2.1548561032       -0.9065150583
 H         -6.9488541257        2.5493695604       -0.4441331708
 H         -6.1261186627        2.3060443248       -1.9857082260
 C         -5.9707006583        0.6504771361       -0.6556326680
 H         -5.1330105796        0.2242491177       -1.2115167361
 H         -6.8832207596        0.2018758394       -1.0577943560
 C         -5.8565907231        0.2359276659        0.8103976971
 H         -6.6637838297        0.6936377622        1.3854711462
 H         -5.9883191659       -0.8485014944        0.8554029825
 C         -4.5173340423        0.5678420967        1.4926677305
 H         -4.5063991593        1.5883003377        1.8680608734
 H         -4.4021281383       -0.0984361433        2.3523791220
 H         -4.9596250782        3.9847428709       -0.7752136258
 H         -4.8820811489        3.0336388027        0.6916616345
 H         -2.7338788809        3.2038835349       -0.5526063381
 H         -3.4702430033        2.4442474846       -1.9513908201
 O         -1.9015128708        0.8147826347       -1.2141715639
 C         -1.1609567666       -0.3466651734       -1.0593648801
 O         -0.2528534063       -0.4773212126       -1.9020987390
 H          1.5973834715       -2.0528068709       -1.2236198180
 C          1.7233735069       -1.8051123100       -0.1820180234
 C          0.6779876706       -1.9994450211        0.7071142742
 C          0.8640720295       -1.6485297848        2.0415727253
 C          2.0653904284       -1.1169233494        2.4722185737
 C          3.0972148781       -0.8963129346        1.5759462320
 C          2.9139372590       -1.2308648177        0.2411611826
 N          3.9300499454       -0.9455592120       -0.6899737810
 S          4.5850944138        0.5937820001       -0.6131532659
 O          4.9706329998        0.9191294964       -1.9689832972
 O          5.6561687399        0.6051201823        0.3539306243
 C          3.2770059793        1.6757419587       -0.0537505628
 C          3.5098748854        2.5030851867        1.0267881852
 C          2.4981487873        3.3432566504        1.4620268452
 C          1.2723127771        3.3399348005        0.8144952013
 C          1.0554266992        2.5058906354       -0.2709198927
 C          2.0645357337        1.6659255204       -0.7139160962
 H          1.8937934981        1.0033225938       -1.5478946906
 H          0.1021930820        2.4871444629       -0.7761876389
 H          0.4811274471        3.9883479161        1.1570936219
 H          2.6656779030        3.9931574309        2.3057408815
 H          4.4744867494        2.4664052651        1.5066420868
 H          3.6708423499       -1.1706227363       -1.6400728967
 H          4.0341539926       -0.4625673193        1.8864855209
 H          2.1972740215       -0.8575749232        3.5114430331
 H          0.0456827527       -1.7828407832        2.7347247395
 C         -0.6807658020       -2.4585658751        0.2416004267
 H         -1.1795641387       -2.9697770108        1.0751904307
 C         -0.6439341585       -3.3894419231       -0.9515385458
 C         -0.1415457693       -4.7898234314       -0.7699531277
 C         -1.5992755157       -4.5418284543       -1.0120413272
 H         -2.0173637913       -4.8140283839       -1.9696916706
 H         -2.2837536381       -4.6681729284       -0.1861183073
 H          0.4431740724       -5.2359442895       -1.5599071924
 H          0.1656549526       -5.0823449806        0.2227189836
 H         -0.4199803852       -2.8881959088       -1.8852744026
 O         -2.9017917446       -1.6742574484        1.8143067682
