  62
        -98.93345861
 C         -2.4558303494       -1.0476944497       -0.0513670597
 C         -2.5741656995        0.3396396701        0.1977839815
 C         -3.9182364595        0.8221447297        0.5624103919
 C         -4.9346466595       -0.0529624004        0.6477232712
 C         -6.3693910495        0.2098606092        1.0320087914
 C         -7.0423158095        1.4582013797        0.4444779925
 C         -6.5712364696        1.8489839309       -0.9639557772
 H         -5.9724322795        1.0452245413       -1.3958207779
 H         -7.4442204196        1.9851051114       -1.6049999370
 C         -5.7668524096        3.1510730810       -0.9843158161
 H         -6.2585874796        3.8766801504       -0.3327769354
 H         -5.7831760897        3.5583956118       -1.9981032557
 C         -4.3006840596        3.0231468307       -0.5724069562
 H         -3.7428875796        2.4875613614       -1.3455956367
 H         -3.8779439496        4.0290795307       -0.5137511153
 C         -4.0484824495        2.3045858696        0.7631218032
 H         -3.0817366296        2.6409049793        1.1478769935
 H         -4.8169961495        2.5469824389        1.4929676134
 H         -8.1150066895        1.2585433397        0.4266924124
 H         -6.8918907295        2.3029802691        1.1151154832
 H         -6.4265455694        0.2530308283        2.1234650515
 H         -6.9147640194       -0.6828012405        0.7166584507
 O         -4.7697126194       -1.3861615402        0.4113676500
 C         -3.5412733194       -1.9147317198        0.0571869596
 O         -3.5441026893       -3.1493187597       -0.1255103415
 O         -1.6068282995        1.1416212502        0.1287789121
 C         -1.1143724594       -1.6354864593       -0.4502038803
 C         -0.0791118194       -1.3204529802        0.6019138000
 C         -0.3434786594       -1.6701668613        1.9242219297
 C          0.5732036506       -1.4027922221        2.9217771599
 C          1.7769666106       -0.7890582818        2.6219760504
 C          2.0493413306       -0.4334683907        1.3066346307
 C          1.1263569706       -0.7061300998        0.3057447305
 H          1.3657985305       -0.4219652790       -0.7047363693
 N          3.2462098805        0.2242125497        0.9809806912
 S          3.9627014905       -0.0514748890       -0.5201752790
 O          3.2934428305        0.7396895718       -1.5212649183
 O          4.0448542506       -1.4721740088       -0.7779317302
 C          5.5872673205        0.6192548208       -0.2169620885
 C          6.6315098505       -0.2304946194        0.0951015908
 C          7.8808999605        0.3106137504        0.3554965012
 C          8.0630729205        1.6842923704        0.3025644124
 C          7.0053478404        2.5246129007       -0.0126244169
 C          5.7541633104        1.9902262808       -0.2753328573
 H          4.9051465004        2.6019688610       -0.5328802067
 H          7.1511223904        3.5919488107       -0.0553881259
 H          9.0361522405        2.1029814303        0.5053352527
 H          8.7059192206       -0.3397188998        0.5977357807
 H          6.4449374306       -1.2921603395        0.1165001899
 H          3.9254183306        0.2003328290        1.7291056612
 H          2.4935460606       -0.5781922824        3.4012383606
 H          0.3526871407       -1.6792460530        3.9420307497
 H         -1.2839215493       -2.1526296215        2.1562463993
 H         -1.2540960694       -2.7266461893       -0.4739092112
 C         -0.7289371295       -1.1662663481       -1.8372327499
 C          0.1975769706       -1.9901674773       -2.6781614506
 C         -1.2559191195       -1.8999732371       -3.0319436305
 H         -1.5407178295       -1.3297989564       -3.9034561600
 H         -1.8819761594       -2.7611558473       -2.8479613912
 H          0.9179120805       -1.4799927068       -3.3005122002
 H          0.5644622806       -2.9144696877       -2.2572868314
 H         -0.6523861295       -0.0865860280       -1.9075470389
