  62
        -98.94037240
 C          0.8928705493        1.1281609729        0.6265196341
 C          1.6265721981        1.1037949580       -0.5818531788
 C          2.5191720444       -0.0513399099       -0.7792903912
 C          2.5601248689       -1.0261415392        0.1475759084
 C          3.3386563525       -2.3238811838        0.1694470552
 C          4.6086004128       -2.4874856620       -0.6646231211
 C          5.7489473594       -1.5359767012       -0.3101784578
 H          6.0949845975       -1.7599192058        0.7019652427
 H          6.5765579934       -1.7339165265       -0.9953506523
 C          5.4073975248       -0.0485355222       -0.3667937798
 H          6.3270520374        0.5122403064       -0.1781526993
 H          4.7116423651        0.2006033130        0.4371146863
 C          4.8270319239        0.4405974533       -1.6937354274
 H          5.4779335096        0.1342503998       -2.5147098813
 H          4.8210587927        1.5332289394       -1.6623956607
 C          3.3884415407       -0.0192046612       -2.0022215320
 H          2.9376272313        0.7100201926       -2.6812542963
 H          3.3768156496       -0.9840813060       -2.5036798930
 H          4.9633984495       -3.5066187410       -0.4878544483
 H          4.3795330305       -2.4125463379       -1.7234744766
 H          3.5768414588       -2.5038474775        1.2218708604
 H          2.6330865212       -3.1045354269       -0.1317841646
 O          1.7829075235       -0.9884990193        1.2692303237
 C          0.9469570717        0.0789927867        1.5418808517
 O          0.3134784254       -0.0229408224        2.6123959105
 O          1.5449209923        1.9998953281       -1.4618063191
 C         -0.0560586083        2.2775724440        0.9178181130
 C         -1.1551333368        2.2700321845       -0.1173938360
 C         -1.5107056399        3.3691128403       -0.8866317209
 C         -2.5146361811        3.2598588898       -1.8340500363
 C         -3.1890710392        2.0676738410       -2.0223675720
 C         -2.8464615123        0.9635770199       -1.2490138981
 C         -1.8365121155        1.0743030032       -0.3090922076
 H         -1.5718170709        0.2170320077        0.2934569183
 N         -3.4859538464       -0.2731514904       -1.4202353513
 S         -3.7942257902       -1.2345793119       -0.0873084478
 O         -4.8128474656       -2.1582672111       -0.5430414380
 O         -4.1411057051       -0.4414579566        1.0693504053
 C         -2.2964218393       -2.1507048626        0.2030171194
 C         -1.8941861076       -2.3752037150        1.5043244968
 C         -0.7745737589       -3.1571487926        1.7358447430
 C         -0.0813918893       -3.6994698319        0.6659709895
 C         -0.4902632847       -3.4546853241       -0.6363724123
 C         -1.6117973394       -2.6769350938       -0.8743905328
 H         -1.9600160515       -2.4687691848       -1.8725750373
 H          0.0586814009       -3.8693138972       -1.4670551629
 H          0.7833024478       -4.3164821378        0.8542615899
 H         -0.4440325391       -3.3283924041        2.7475021409
 H         -2.4508641002       -1.9219705506        2.3092767819
 H         -4.2529747492       -0.2760552367       -2.0767329105
 H         -3.9710468933        1.9864774001       -2.7619462759
 H         -2.7780166765        4.1184371580       -2.4330452632
 H         -0.9977429194        4.3071434978       -0.7531273374
 H         -0.5140799593        2.0552763813        1.8931944072
 C          0.6910516084        3.5900252729        1.0138391060
 C          0.1250643911        4.7168861366        1.8230111015
 C          1.3263804379        3.9692045285        2.3163337481
 H          2.2862731104        4.4631304934        2.2978634516
 H          1.2014470688        3.2892011375        3.1468195273
 H          0.2617304749        5.7274287460        1.4687386306
 H         -0.8168948745        4.5485447630        2.3232871941
 H          1.2310044354        3.8310213595        0.1058921094
