  62
        -98.93518817
 C          2.4742610971        0.8909623849        0.9316993444
 C          3.6012583420        1.0666077251        0.0908658260
 C          4.6735028679        0.0681118474        0.2436291508
 C          4.5306842886       -0.9348597408        1.1274159429
 C          5.5182991384       -2.0455868542        1.3354896246
 C          5.2039155648       -3.2469627264        0.4331654433
 C          4.9749784275       -2.8763205153       -1.0322194014
 H          4.7931609603       -3.8051262564       -1.5774778484
 H          4.0647021834       -2.2767995821       -1.1102099177
 C          6.1395602233       -2.1189831642       -1.6855247086
 H          6.3262307192       -2.5488243482       -2.6719072786
 H          7.0468279252       -2.2550609648       -1.0958263555
 C          5.8880647765       -0.6241687269       -1.8913475850
 H          4.9312469768       -0.4810547171       -2.3997813134
 H          6.6696079745       -0.2357434426       -2.5497247096
 C          5.8921707068        0.2346065986       -0.6204489208
 H          6.8005046278        0.0391266383       -0.0471561547
 H          5.8985106862        1.2838138086       -0.9299558160
 H          6.0285513764       -3.9584249991        0.5058933242
 H          4.3003147529       -3.7342234293        0.8072297465
 H          6.5209753418       -1.6760525317        1.1295238895
 H          5.4641833667       -2.3623347365        2.3784480954
 O          3.4300832610       -1.0768295326        1.9107812104
 C          2.3815700273       -0.1786211848        1.8263574838
 O          1.4325043083       -0.4256934365        2.5993465643
 H         -1.3231905853        1.2205190998        1.3241513162
 C         -1.0405367351        1.0846537459        0.2884392282
 C          0.2646319512        1.3492997913       -0.0972134705
 C          0.6236412475        1.1381243976       -1.4249672783
 C         -0.3111112852        0.6851966989       -2.3375469415
 C         -1.6170792871        0.4346164017       -1.9518012579
 C         -1.9819624672        0.6266645589       -0.6262071674
 N         -3.3134773794        0.4004683819       -0.2159590916
 S         -4.0186387885       -1.1082452446       -0.5065247037
 O         -3.4159728634       -2.1140867942        0.3429199080
 O         -3.9931673870       -1.3728989980       -1.9215405786
 C         -5.6869087962       -0.7733582902        0.0208601059
 C         -6.5209238445       -0.0828885834       -0.8375345732
 C         -7.8099056364        0.2130542107       -0.4243827433
 C         -8.2405758128       -0.1833153757        0.8332138448
 C         -7.3923153050       -0.8771689206        1.6827180508
 C         -6.1010108029       -1.1751223671        1.2759498102
 H         -5.4100240051       -1.7187101112        1.9005715528
 H         -7.7302934699       -1.1863045612        2.6587931521
 H         -9.2444708617        0.0478202006        1.1527789877
 H         -8.4734579462        0.7507317733       -1.0823135941
 H         -6.1457629471        0.1985261946       -1.8073679769
 H         -3.4280953539        0.6065956371        0.7688205764
 H         -2.3456596924        0.0701542012       -2.6565204180
 H         -0.0215358930        0.5263569441       -3.3657136045
 H          1.6408352770        1.3332135431       -1.7299044442
 C          1.2725979577        1.8222404265        0.9187467941
 H          0.8144660526        1.7077946574        1.9142147824
 C          1.6467319766        3.2899842354        0.7624002569
 C          1.2950774456        4.1168078710       -0.4340417460
 C          0.5788000363        4.3393726785        0.8616284236
 H          0.7840821372        5.2371249938        1.4246672293
 H         -0.4435449749        3.9979781345        0.9292368065
 H          0.7537832410        3.6482324925       -1.2405396893
 H          2.0180997064        4.8473766712       -0.7629337481
 H          2.5949425800        3.5167522673        1.2382662114
 O          3.7279617829        1.9969926840       -0.7446015564
