  62
        -98.93059113
 C         -1.4608737054       -1.6484207106       -0.1552082880
 C         -1.3309733361       -0.2868348945        0.2088946588
 C         -2.5662884748        0.3814664728        0.6684978829
 C         -3.7168737394       -0.3102151500        0.7079422460
 C         -5.0825414457        0.2074232159        1.0655382247
 C         -5.8422785311        0.6421253338       -0.1993908676
 C         -5.5888132496        2.0830027988       -0.6417984482
 H         -6.0764505082        2.2144839067       -1.6106489854
 H         -6.0726882968        2.7634867064        0.0621655092
 C         -4.1164492403        2.4821183677       -0.7739148373
 H         -3.5595098847        1.6812226560       -1.2634488097
 H         -4.0666279095        3.3561378883       -1.4262743284
 C         -3.4620151974        2.8282759938        0.5715411551
 H         -4.2419593028        2.9491138761        1.3232961067
 H         -2.9601453190        3.7941867964        0.4891020781
 C         -2.4131125181        1.8226145941        1.0710021686
 H         -1.4258311613        2.1066598926        0.6945930572
 H         -2.3607459265        1.8748365974        2.1632879964
 H         -6.9136307374        0.5269368758       -0.0221540393
 H         -5.5699611638       -0.0443215080       -1.0054146425
 H         -5.0117447576        1.0211183531        1.7811226742
 H         -5.6214446770       -0.6226459713        1.5270406841
 O         -3.7954025280       -1.6228137034        0.3521650808
 C         -2.6839676887       -2.3180624089       -0.0805082126
 O         -2.9050689444       -3.5133349621       -0.3664401617
 O         -0.2549069423        0.3591158090        0.1557469701
 C         -0.2795018390       -2.4714207344       -0.6611723800
 C          0.8851990700       -2.3098450952        0.2820026872
 C          0.8570050183       -3.0858777046        1.4412190525
 C          1.8367489076       -2.9679264671        2.4072505604
 C          2.8782883045       -2.0732166947        2.2408046173
 C          2.9220743098       -1.2965140474        1.0893311443
 C          1.9306280951       -1.4136832124        0.1234079504
 H          1.9926823645       -0.7716301314       -0.7340927982
 N          3.9797781758       -0.4063829914        0.8902695176
 S          4.0592939706        0.7584494432       -0.2875257382
 O          4.0373557127        0.1492809510       -1.5947540811
 O          5.2680094393        1.4866268106        0.0436156903
 C          2.6722945966        1.8582334596       -0.0857776605
 C          1.9877021708        2.2845086068       -1.2038293275
 C          0.9604544546        3.2010163128       -1.0533528468
 C          0.6414285120        3.6760295716        0.2079500197
 C          1.3371988386        3.2354506460        1.3226506996
 C          2.3642189582        2.3188819819        1.1772979189
 H          2.9220115080        1.9592033802        2.0268161248
 H          1.0760855451        3.5983709116        2.3040735004
 H         -0.1578976320        4.3918644527        0.3238878927
 H          0.4081831642        3.5337546004       -1.9181322137
 H          2.2660277572        1.8870136387       -2.1677388672
 H          4.5891986086       -0.2378754954        1.6739345143
 H          3.6479000051       -1.9755137070        2.9909421889
 H          1.7895654335       -3.5762367854        3.2979273644
 H          0.0397371733       -3.7804236669        1.5824345796
 H         -0.6118795996       -3.5172524320       -0.5647065684
 C         -0.1079181391       -2.2507100988       -2.1592414332
 C          0.3460450258       -0.9743853020       -2.7984798455
 C          1.1947886677       -2.2072360847       -2.8982056300
 H          1.2460744742       -2.7087940573       -3.8537917356
 H          2.1168532139       -2.2447005570       -2.3404319079
 H         -0.1779735811       -0.6405814164       -3.6834210766
 H          0.6575465417       -0.1658149620       -2.1569447200
 H         -0.9209966438       -2.7528433651       -2.6801267608
