  62
        -98.93315508
 C          2.2255457429       -0.9093009269       -0.6583937667
 C          3.3626265001       -0.8295688457        0.1808260880
 C          4.3405011174        0.2276810498       -0.1389430272
 C          4.1118088079        1.0578991404       -1.1694848596
 C          4.9786139502        2.1764243520       -1.6924411475
 C          5.6647233007        3.0858459204       -0.6645350294
 C          4.8607899572        3.3344634097        0.6200205528
 H          4.8079800846        4.4093774384        0.8029622665
 H          3.8373496115        2.9753360810        0.4961650744
 C          5.4866332051        2.6777539952        1.8527864153
 H          6.5666121254        2.8379721020        1.8245566789
 H          5.1050356719        3.1758267634        2.7472887040
 C          5.2061697933        1.1841857279        2.0115883926
 H          5.7935942789        0.8195325018        2.8575521186
 H          4.1531115878        1.0297801868        2.2619875636
 C          5.5241261583        0.3182216923        0.7817136425
 H          6.4088949176        0.6784721237        0.2630615766
 H          5.7137492907       -0.7009127917        1.1286794659
 H          6.6362646962        2.6704199177       -0.4009916144
 H          5.8551895059        4.0368490431       -1.1649253816
 H          5.7385819274        1.7382724576       -2.3462126532
 H          4.3170594387        2.7731098715       -2.3253968142
 O          2.9960006726        0.9535133787       -1.9479343719
 C          2.0420553297       -0.0202490503       -1.7206239440
 O          1.0915795567        0.0008141287       -2.5306126991
 O          3.5859450687       -1.6007041180        1.1501327988
 C          1.1261600804       -1.9444473856       -0.4759561591
 C          0.1809548457       -1.5366385214        0.6295575766
 C          0.5739886383       -1.5323303420        1.9640901064
 C         -0.3146148408       -1.1483811172        2.9513623320
 C         -1.6046959994       -0.7644774894        2.6313479207
 C         -2.0092248657       -0.7698517059        1.3012176016
 C         -1.1152617390       -1.1551725059        0.3120107962
 H         -1.4324094636       -1.1356982600       -0.7203065113
 N         -3.3301921204       -0.4285771723        0.9606708875
 S         -3.6319658522        0.3773199071       -0.4915805837
 O         -3.5728626282       -0.5741343021       -1.5722524136
 O         -2.7824273880        1.5427534025       -0.6009220398
 C         -5.3264187522        0.8650881676       -0.2228952398
 C         -5.6166435386        2.1654224938        0.1433859650
 C         -6.9372868884        2.5178506413        0.3750023998
 C         -7.9390201105        1.5685488044        0.2402776501
 C         -7.6322949147        0.2670914369       -0.1290475860
 C         -6.3145804668       -0.0912689435       -0.3638028556
 H         -6.0288341860       -1.0864510177       -0.6618054955
 H         -8.4138764769       -0.4676747825       -0.2356525013
 H         -8.9655723863        1.8453979413        0.4214082702
 H         -7.1788041095        3.5294915041        0.6587449894
 H         -4.8054177281        2.8706510253        0.2285270703
 H         -3.8229919894        0.0130421178        1.7256884074
 H         -2.2957701835       -0.4643989761        3.4045508357
 H          0.0027352689       -1.1432044127        3.9832922411
 H          1.5858421974       -1.8099933183        2.2147272951
 H          0.5554769899       -1.9331512263       -1.4152287481
 C          1.6559793391       -3.3484700453       -0.2565974927
 C          0.7487773865       -4.5097387373       -0.5245085647
 C          1.9011029325       -4.2307123856       -1.4414311801
 H          2.7515367840       -4.8954799934       -1.4211547134
 H          1.6879637553       -3.8238581039       -2.4198017773
 H          0.8056279703       -5.3688315834        0.1259343772
 H         -0.2469432109       -4.2916623027       -0.8817910232
 H          2.3470178303       -3.4258310832        0.5716668471
