  62
        -98.94433428
 C         -2.3118816162       -1.0921922560        0.2442132177
 C         -2.4149814478        0.1157220177       -0.4875642917
 C         -3.3887575184        1.0904468344        0.0232563030
 C         -4.0805573627        0.8292294137        1.1464078267
 C         -5.0864578447        1.7353980432        1.8025780121
 C         -6.4969262370        1.6395204416        1.2046483563
 C         -6.6623243988        2.2717973584       -0.1778648519
 H         -7.7341229024        2.3273808989       -0.3782501714
 H         -6.2817964817        3.2935149928       -0.1567832678
 C         -5.9879947724        1.4924152767       -1.3154642228
 H         -5.7688017378        0.4759367985       -0.9808243455
 H         -6.6770057116        1.4102208842       -2.1590356801
 C         -4.7010608561        2.1270529222       -1.8428640868
 H         -4.2897020163        1.4749247618       -2.6175112674
 H         -4.9288112225        3.0919168362       -2.3014557259
 C         -3.6175918963        2.3374867855       -0.7768961244
 H         -3.8894788570        3.1650727635       -0.1219315084
 H         -2.6803977463        2.5863418737       -1.2813908305
 H         -6.7867539186        0.5871736819        1.1612585738
 H         -7.1773629385        2.1436587788        1.8946724205
 H         -5.1358849284        1.4351948450        2.8514830027
 H         -4.7373599930        2.7672726538        1.7532414949
 O         -3.9219103513       -0.3248666074        1.8463704242
 C         -3.0558146271       -1.3109465780        1.4083198282
 O         -3.0345777296       -2.3269283002        2.1312671946
 O         -1.7447518460        0.3873264566       -1.5195513757
 C         -1.3705069824       -2.2181368909       -0.1598395048
 C          0.0457263978       -1.8337656539        0.1960122214
 C          0.6039928512       -2.2687514101        1.3937852686
 C          1.8832076267       -1.8865103927        1.7547312797
 C          2.6299084502       -1.0596490878        0.9336014369
 C          2.0738932414       -0.6046830994       -0.2542262281
 C          0.7960378119       -1.0029232867       -0.6225648454
 H          0.3637045613       -0.6247152889       -1.5358318387
 N          2.8163751241        0.2444080672       -1.0929018239
 S          3.6006691811        1.5566559877       -0.4020952583
 O          2.9275681837        2.0192164505        0.7901642314
 O          3.7472068316        2.5185152745       -1.4729559127
 C          5.2087945826        0.9118686104        0.0134886340
 C          5.7164324707        1.0919876404        1.2851935778
 C          6.9766022436        0.5952500809        1.5808284256
 C          7.7034211590       -0.0680492931        0.6042187952
 C          7.1802116560       -0.2390080722       -0.6689246373
 C          5.9218270549        0.2560203345       -0.9711425023
 H          5.4805546836        0.1460099882       -1.9475657538
 H          7.7480418944       -0.7561361807       -1.4255276121
 H          8.6831461681       -0.4544803528        0.8368605902
 H          7.3845813708        0.7274153111        2.5700892132
 H          5.1122474854        1.6083169989        2.0143056992
 H          2.3106008184        0.5274093523       -1.9204772172
 H          3.6242943827       -0.7519161748        1.2131850386
 H          2.3041232428       -2.2344412949        2.6858277487
 H          0.0151882918       -2.8961712177        2.0479888087
 H         -1.6507049588       -3.0753113124        0.4664099079
 C         -1.5282889861       -2.6140881489       -1.6140170910
 C         -0.9804127714       -3.9313136320       -2.0711688832
 C         -2.4619330394       -3.7301164137       -1.9695912934
 H         -3.0370841199       -3.6495818631       -2.8798986853
 H         -2.9899364425       -4.2168901539       -1.1623670528
 H         -0.5358206523       -3.9920303920       -3.0525914922
 H         -0.5024053504       -4.5552853863       -1.3312687717
 H         -1.4770217447       -1.7794773390       -2.3005852811
