  62
        -98.94128044
 C          1.9900794801        1.2875927156        0.3408896454
 C          2.5765638174        0.6227110692       -0.7652578395
 C          3.4812249630       -0.4927066608       -0.4386123963
 C          3.6922593251       -0.8245767212        0.8474569324
 C          4.5409198985       -1.9717416774        1.3124987098
 C          3.7093130616       -3.2531055605        1.4647553041
 C          2.8362429660       -3.5699003043        0.2504596983
 H          2.3164742801       -4.5080683462        0.4571099229
 H          2.0717001832       -2.7958618134        0.1488924629
 C          3.6084984205       -3.6933412300       -1.0705925907
 H          4.6687575907       -3.8470392495       -0.8669242103
 H          3.2498903061       -4.5756944893       -1.6051219834
 C          3.4431215723       -2.5024636332       -2.0167388416
 H          3.8508317616       -2.7841792966       -2.9913137251
 H          2.3795207244       -2.2930469543       -2.1593630313
 C          4.1391571330       -1.2043754072       -1.5878400674
 H          5.1883086295       -1.4078798944       -1.3642397678
 H          4.0961166550       -0.5116659055       -2.4336286461
 H          4.3888903128       -4.0862382647        1.6522348521
 H          3.0585456000       -3.1428204628        2.3351568991
 H          5.3480388643       -2.1323385878        0.6004147606
 H          4.9700195716       -1.7106622113        2.2812825396
 O          3.1053781168       -0.1720194590        1.8819230787
 C          2.2499635023        0.8934773970        1.6565529288
 O          1.7889078016        1.4049867467        2.6963864285
 O          2.3618427135        0.9199671287       -1.9702453288
 C          1.0727187369        2.4856039796        0.1864212291
 C         -0.3447663957        2.1340671435       -0.2075995871
 C         -1.3725030400        3.0378591643        0.0468614160
 C         -2.6747623435        2.7521569234       -0.3188185883
 C         -2.9856391492        1.5554169942       -0.9400843842
 C         -1.9705388835        0.6420642731       -1.1883685268
 C         -0.6625776024        0.9337382231       -0.8217337837
 H          0.1161072060        0.2152368299       -1.0321347397
 N         -2.2791502020       -0.5858413159       -1.7962207231
 S         -3.6115893862       -1.4223601920       -1.2265242050
 O         -3.3133478270       -2.8182139236       -1.4572644810
 O         -4.8037548044       -0.9221562433       -1.8645254597
 C         -3.6796997123       -1.0729109017        0.5228593985
 C         -4.8135491207       -0.5035781684        1.0654816517
 C         -4.8367656499       -0.2164497712        2.4209652506
 C         -3.7282901288       -0.4956119111        3.2048644066
 C         -2.5967752814       -1.0701684499        2.6457614356
 C         -2.5709539587       -1.3647195767        1.2925680494
 H         -1.7053967563       -1.8149163306        0.8323489379
 H         -1.7317707194       -1.2802106028        3.2547979922
 H         -3.7417291131       -0.2644392507        4.2582283100
 H         -5.7151040501        0.2285547623        2.8597721116
 H         -5.6493729414       -0.2956612849        0.4175120671
 H         -1.4840670893       -1.1942264886       -1.9211142841
 H         -3.9929916295        1.3160167805       -1.2398309894
 H         -3.4584105794        3.4657406563       -0.1172683115
 H         -1.1436909371        3.9701992976        0.5387916943
 H          1.0292749244        2.9528277081        1.1803504746
 C          1.6328680302        3.5031060720       -0.7943979592
 C          1.4745932048        4.9697069052       -0.5377558972
 C          2.8200322832        4.3253555931       -0.3953906858
 H          3.5791454498        4.5275444922       -1.1358173284
 H          3.2118814329        4.1791710562        0.6012268894
 H          1.3029680701        5.6221424478       -1.3800501533
 H          0.9723219811        5.2761536486        0.3670715644
 H          1.5923052429        3.1629500447       -1.8216578246
