  62
        -98.94469539
 C         -2.0736971207        0.3699484346        0.1703319296
 C         -3.0627718187        0.8705779004       -0.7131812870
 C         -4.2498390793        0.0271816591       -0.9002178808
 C         -4.3159903660       -1.1614757967       -0.2732199566
 C         -5.4835446676       -2.1019296657       -0.3401060351
 C         -6.4836872799       -1.8282911670        0.7919177022
 C         -6.8701399805       -0.3558899894        0.9323538468
 H         -7.6021712532       -0.2877999651        1.7400105472
 H         -5.9925355361        0.2144616892        1.2450990703
 C         -7.4542698890        0.2715782154       -0.3410491087
 H         -7.7853716301       -0.5130397389       -1.0223403005
 H         -8.3347818738        0.8579148156       -0.0699871773
 C         -6.5013377767        1.2140867097       -1.0786014841
 H         -6.0942621833        1.9460318447       -0.3764899880
 H         -7.0788331990        1.7640936597       -1.8263657423
 C         -5.3308167589        0.5428119526       -1.8081262493
 H         -5.7070901345       -0.2549835862       -2.4517121210
 H         -4.8555853910        1.2985793414       -2.4402425705
 H         -7.3791781754       -2.4262515554        0.6130111819
 H         -6.0384407292       -2.1569051075        1.7339098985
 H         -5.9738934002       -1.9958769726       -1.3058768002
 H         -5.1087912852       -3.1223899422       -0.2434868967
 O         -3.3333273701       -1.6246012672        0.5393189638
 C         -2.1934622832       -0.8733835881        0.7913301992
 O         -1.3912223895       -1.4192312767        1.5725897172
 O         -2.9568874686        1.9723460735       -1.3148985552
 C         -0.8288780759        1.2124642453        0.3983469766
 C          0.3414433813        0.5161678229       -0.2501932824
 C          0.5192966237        0.6346496927       -1.6261926379
 C          1.5484175381       -0.0296415478       -2.2662893734
 C          2.4207600512       -0.8297804352       -1.5489847281
 C          2.2512719758       -0.9543845652       -0.1765445681
 C          1.2265339902       -0.2725899742        0.4680150053
 H          1.0981207729       -0.3930221378        1.5317924762
 N          3.1282974400       -1.7685433057        0.5570097786
 S          4.7648227168       -1.6732087767        0.2369757045
 O          5.0801488902       -2.4500549463       -0.9364670442
 O          5.4164403126       -2.0867117543        1.4599899710
 C          5.0779532768        0.0543314968       -0.0826216620
 C          5.5579995870        0.4531736644       -1.3131691159
 C          5.7679952059        1.8032014280       -1.5454954364
 C          5.4921087501        2.7261549351       -0.5490389522
 C          5.0130702041        2.3093461447        0.6837237488
 C          4.8022805258        0.9611984263        0.9216855244
 H          4.4365963702        0.6039362202        1.8708651761
 H          4.8008363152        3.0291155346        1.4578853797
 H          5.6521239058        3.7769430800       -0.7323137847
 H          6.1425637370        2.1297707252       -2.5022058004
 H          5.7581260903       -0.2977784744       -2.0599820471
 H          2.9335494281       -1.8005429096        1.5462376687
 H          3.2168286477       -1.3720056806       -2.0329297504
 H          1.6717018397        0.0707496398       -3.3338579062
 H         -0.1718801594        1.2461620104       -2.1891263236
 H         -1.0114931516        2.1478882409       -0.1474924158
 C         -0.6203404884        1.5367338215        1.8624021559
 C          0.3192527474        2.6410475571        2.2415590045
 C         -1.1586440922        2.8237335599        2.4087339940
 H         -1.5701867445        2.8265052989        3.4070824188
 H         -1.6741709176        3.4806655507        1.7236122875
 H          0.9246220614        2.5229465362        3.1271966878
 H          0.8068363723        3.1739584851        1.4396323809
 H         -0.6733928914        0.6682800905        2.5076215528
