  62
        -98.93177497
 C          2.0698458291        1.0745109930        0.3517693460
 C          2.7486485329        0.2127346080        1.2491378515
 C          3.2481597055       -1.0536711744        0.6940271042
 C          2.9838860895       -1.3514637924       -0.5909034772
 C          3.4761422387       -2.5667540905       -1.3242005581
 C          4.9589924325       -2.3882891824       -1.7084062607
 C          5.9119138589       -3.3604589370       -1.0124286498
 H          5.8192328364       -4.3428928237       -1.4799614321
 H          6.9288153827       -3.0047674638       -1.1907893155
 C          5.7021962573       -3.5373199906        0.4945124914
 H          6.5942148532       -4.0327788195        0.8834188666
 H          4.8668638508       -4.2164784592        0.6713747369
 C          5.4655441476       -2.2499727273        1.2946903369
 H          5.8883003044       -1.3904167514        0.7741936539
 H          5.9954327844       -2.3385393666        2.2451577153
 C          3.9895403448       -1.9670920071        1.6311469473
 H          3.4477955287       -2.9128993994        1.7218906957
 H          3.9414654596       -1.4672413980        2.6032686757
 H          5.2507834157       -1.3615069620       -1.4777851877
 H          5.0716494730       -2.5112440868       -2.7865855980
 H          2.8600242102       -2.6763516680       -2.2171598136
 H          3.3443219363       -3.4490811309       -0.7015057134
 O          2.2802682213       -0.5259942083       -1.4077253009
 C          1.7962777854        0.6984755201       -0.9646462778
 O          1.1576832294        1.3284941619       -1.8277914916
 O          2.9186507051        0.4873905886        2.4679749740
 C          1.5281146345        2.3819783555        0.9047075554
 C          0.0788243026        2.5284540360        0.5136089986
 C         -0.4368074815        3.6129703639       -0.1821044521
 C         -1.7725814327        3.6426576939       -0.5460134013
 C         -2.6199397948        2.5976402121       -0.2281910195
 C         -2.1141001802        1.5111115472        0.4714144410
 C         -0.7824147892        1.4899578193        0.8475814420
 H         -0.3904422467        0.6319259393        1.3827618018
 N         -2.9723247206        0.4244999434        0.7791599420
 S         -3.3223225511       -0.5932650961       -0.5284982709
 O         -2.3566472862       -1.6741179447       -0.5667716587
 O         -3.4637665788        0.1988420946       -1.7218334294
 C         -4.9126771130       -1.2296445682       -0.0342200384
 C         -5.0030403814       -2.4770473872        0.5511279036
 C         -6.2445291397       -2.9361678711        0.9631481044
 C         -7.3672345250       -2.1420471521        0.7873123349
 C         -7.2603173475       -0.8907829816        0.1983148427
 C         -6.0222340169       -0.4270998045       -0.2158251289
 H         -5.8914712908        0.5337225019       -0.6852630704
 H         -8.1358120335       -0.2767745123        0.0613629581
 H         -8.3318224019       -2.5014273753        1.1093184088
 H         -6.3302029927       -3.9093965322        1.4191504182
 H         -4.1047593529       -3.0632060809        0.6605192526
 H         -2.5742428825       -0.1603334713        1.5036089444
 H         -3.6532990473        2.5987032584       -0.5327237293
 H         -2.1549743150        4.4887596747       -1.0966359614
 H          0.2135655557        4.4229588964       -0.4689074850
 H          1.5716307670        2.2504370823        1.9994024981
 C          2.3742080196        3.6043207010        0.5847714934
 C          3.8415206932        3.4756762421        0.3078619267
 C          2.9045529182        3.8765940758       -0.7897912114
 H          2.9302730977        4.8999913990       -1.1347582394
 H          2.6760153912        3.1607415999       -1.5635410968
 H          4.5080260684        4.2204313457        0.7161230952
 H          4.2602248256        2.4799226737        0.2836765040
 H          2.0722317236        4.4680944705        1.1689742447
