  62
        -98.93824443
 C          2.4885076785        0.7270407364       -0.0096563766
 C          2.8796306883       -0.4057433210        0.7501625133
 C          4.0061221203       -1.1847055478        0.2276931586
 C          4.5870013228       -0.8175062551       -0.9287015147
 C          5.7295935128       -1.5207876832       -1.6098635203
 C          7.1133408646       -1.1294235622       -1.0734756213
 C          7.4535280165       -1.6796851765        0.3121534957
 H          7.2841421615       -2.7567754770        0.3257746109
 H          8.5216233261       -1.5159279068        0.4684947886
 C          6.6802139933       -1.0204261588        1.4627647214
 H          7.3705268145       -0.7778452154        2.2739015174
 H          6.2480536559       -0.0779873521        1.1184175174
 C          5.5686125351       -1.8851903724        2.0574411254
 H          6.0039084004       -2.7715988640        2.5241995944
 H          5.0647918818       -1.3074522932        2.8366118736
 C          4.5092066283       -2.3370027950        1.0437412663
 H          4.9158652467       -3.1129813114        0.3954982126
 H          3.6603708532       -2.7492443457        1.5947060774
 H          7.8552274344       -1.5050648468       -1.7819511357
 H          7.1879953745       -0.0395796443       -1.0612797297
 H          5.5974746647       -2.5998729156       -1.5258530035
 H          5.6790892808       -1.2447875463       -2.6653048035
 O          4.1706947609        0.2603640217       -1.6413590450
 C          3.1237311846        1.0665909674       -1.2052122778
 O          2.8808059683        2.0185440609       -1.9680243020
 O          2.3107238920       -0.7452599941        1.8227990534
 C          1.3343390138        1.5432273103        0.5438081089
 C          0.0190823510        1.0461274475        0.0000472431
 C         -0.1955223530        0.9167012983       -1.3687024287
 C         -1.4117725952        0.4634498096       -1.8457737144
 C         -2.4325124740        0.1241057211       -0.9744633569
 C         -2.2286698204        0.2467435314        0.3930087753
 C         -1.0075158698        0.7087196969        0.8693107062
 H         -0.8478437395        0.7911607891        1.9361320181
 N         -3.2509567926       -0.1155456883        1.2829595078
 S         -4.8130658590        0.4279158348        1.0016057899
 O         -4.8121468389        1.6898345333        0.2994645113
 O         -5.4533508296        0.4125375766        2.2983069036
 C         -5.5334497002       -0.8417560171       -0.0173622090
 C         -6.1015467644       -0.5100389061       -1.2316747871
 C         -6.6645510846       -1.5136366565       -2.0047072039
 C         -6.6501891094       -2.8238138629       -1.5515186655
 C         -6.0785344289       -3.1398643642       -0.3279203995
 C         -5.5154687084       -2.1411585850        0.4502049848
 H         -5.0656324339       -2.3454247898        1.4074830824
 H         -6.0695716512       -4.1598977499        0.0211818109
 H         -7.0871912421       -3.6033820991       -2.1553835905
 H         -7.1102016039       -1.2697814562       -2.9557406877
 H         -6.0854777722        0.5214313717       -1.5462947781
 H         -3.0015095247       -0.0286848555        2.2572807040
 H         -3.3798371434       -0.2318923937       -1.3446435373
 H         -1.5665551218        0.3699590868       -2.9100611989
 H          0.5994521348        1.1793368797       -2.0504672930
 H          1.3407300713        1.3318133818        1.6253268992
 C          1.5178914119        3.0454362464        0.3806833391
 C          0.6928016522        3.8944785647       -0.5340396289
 C          0.4986328143        3.9895493731        0.9477140055
 H          0.8395604367        4.8745639806        1.4632422871
 H         -0.4037773535        3.5596376811        1.3574666859
 H          1.1912797030        4.7013601362       -1.0489097955
 H         -0.0804453151        3.4207853333       -1.1177675724
 H          2.5579659948        3.3365018567        0.4882192976
