  62
        -98.93895392
 C         -1.6787583200       -1.1797817800       -0.2202299096
 C         -3.0183259399       -1.3925008898        0.1835366207
 C         -3.9875513598       -0.3625074896       -0.2195630790
 C         -3.5616901098        0.6914845603       -0.9396186391
 C         -4.4064482097        1.8617771505       -1.3563888389
 C         -4.6119880293        2.8146488105       -0.1613511488
 C         -6.0588810691        2.9164468707        0.3217456115
 H         -6.0469675888        3.4318038607        1.2844898816
 H         -6.6236997892        3.5371989309       -0.3769850183
 C         -6.8061527193        1.5883724709        0.4765998817
 H         -7.7032904492        1.7952583510        1.0639685419
 H         -7.1477939396        1.2429839010       -0.5002995283
 C         -6.0259252994        0.4536805007        1.1530218314
 H         -6.7137032993       -0.0900849692        1.8038276216
 H         -5.2373931492        0.8552939805        1.7897888713
 C         -5.4209948398       -0.5770131194        0.1812002413
 H         -5.4323188399       -1.5592582594        0.6628974712
 H         -6.0445837600       -0.6443207492       -0.7145873486
 H         -4.2710698692        3.8152787304       -0.4309885988
 H         -3.9759335591        2.4763753403        0.6592913611
 H         -5.3632852298        1.5088267807       -1.7344104087
 H         -3.8790766498        2.3715532904       -2.1629294090
 O         -2.2665171099        0.8568593701       -1.3137772694
 C         -1.2931073500       -0.0673878101       -0.9657553196
 O         -0.1511410300        0.2146305397       -1.3733839099
 O         -3.3848413200       -2.3951133998        0.8539105707
 C         -0.6220743901       -2.1986302102        0.1687811801
 C          0.4433701502       -1.5312923005        1.0023320799
 C          0.0618035006       -0.8976843204        2.1836537000
 C          0.9937855609       -0.2647306206        2.9817118499
 C          2.3283552208       -0.2411163909        2.6134339696
 C          2.7205895504       -0.8718792009        1.4402001495
 C          1.7825118001       -1.5210943907        0.6468041396
 H          2.1186534499       -1.9942196607       -0.2600102705
 N          4.0742477203       -0.8859737811        1.0503608692
 S          4.5067050601       -0.2431703411       -0.4355809709
 O          3.8590192998       -0.9714966610       -1.4938831608
 O          5.9538943201       -0.2684396314       -0.4352365312
 C          3.9462712804        1.4491712290       -0.3671294107
 C          4.8566400007        2.4271301688       -0.0131325709
 C          4.4227605510        3.7362409289        0.1134422692
 C          3.0877710510        4.0430143491       -0.1046319304
 C          2.1880623507        3.0489744493       -0.4555263303
 C          2.6146477204        1.7359692292       -0.5896220404
 H          1.9247104802        0.9549534194       -0.8685451903
 H          1.1478903307        3.2762061095       -0.6289575900
 H          2.7460920412        5.0611583092       -0.0027206103
 H          5.1226145412        4.5108663187        0.3828092091
 H          5.8847696807        2.1424994586        0.1428195789
 H          4.7001472706       -0.5240584012        1.7570289490
 H          3.0597962410        0.2573127390        3.2315043694
 H          0.6810829812        0.2193625694        3.8944861299
 H         -0.9823528393       -0.9115979103        2.4655753103
 H         -1.1433858501       -2.9315847302        0.8021223202
 C         -0.0865018105       -2.9111494703       -1.0543785400
 C          0.4968295493       -4.2851868904       -0.9229796002
 C         -0.8312796108       -4.0952150401       -1.5905706999
 H         -0.8952282711       -4.2225997301       -2.6608717399
 H         -1.7202440008       -4.4040037200       -1.0599710997
 H          1.3491310391       -4.5416988105       -1.5341403504
 H          0.5110023394       -4.7295236304        0.0608262798
 H          0.3612134095       -2.2363837403       -1.7760924601
