  62
        -98.93533924
 C          1.9417208399        1.0292716974        0.3924431883
 C          2.6169989252       -0.0528143230        1.0147413652
 C          4.0395440947       -0.2152132021        0.6902511467
 C          4.6316008178        0.6577431033       -0.1439141658
 C          6.0818173371        0.6792810487       -0.5486860585
 C          6.5761573119       -0.5258688110       -1.3716526133
 C          7.2073928868       -1.6460611603       -0.5356200257
 H          8.0810105655       -2.0305250436       -1.0659682451
 H          7.5714069300       -1.2228577959        0.4013781666
 C          6.3038362876       -2.8462236979       -0.2366736856
 H          6.2448713208       -3.4788659665       -1.1253265845
 H          6.7779293508       -3.4331225139        0.5530518163
 C          4.8715741122       -2.5163986099        0.1849024624
 H          4.4058836974       -3.4313535178        0.5570620870
 H          4.2913611625       -2.2107882880       -0.6893024305
 C          4.7525137636       -1.4106548652        1.2517091671
 H          5.7354909297       -1.1301540106        1.6274600767
 H          4.1513419872       -1.7666646611        2.0909202832
 H          7.3330637611       -0.1484475525       -2.0610084000
 H          5.7561170446       -0.9156179267       -1.9742163228
 H          6.2042944994        1.5889855423       -1.1399669575
 H          6.6948317065        0.7800721856        0.3498001830
 O          3.9547216761        1.6922179084       -0.7076938433
 C          2.6020947106        1.8987471759       -0.4763450053
 O          2.1405106846        2.8766535639       -1.0953759037
 O          2.0558868745       -0.8431769698        1.8213378170
 C          0.4669734391        1.1896372170        0.7214944618
 C         -0.4037656761        0.5882439512       -0.3561476734
 C         -0.4154179807        1.0965292581       -1.6518463030
 C         -1.2172094483        0.5232704908       -2.6211107797
 C         -2.0365635630       -0.5500128781       -2.3156634126
 C         -2.0348107238       -1.0633259814       -1.0250578833
 C         -1.2146230839       -0.4973317816       -0.0575540087
 H         -1.2154262349       -0.9168995481        0.9373428910
 N         -2.8615485066       -2.1499303743       -0.6778872366
 S         -3.9572608343       -1.9404205776        0.5710797896
 O         -3.2575425806       -1.7357540639        1.8124250024
 O         -4.8277068851       -3.0924156952        0.5018820997
 C         -4.8586895652       -0.4695163797        0.1159882260
 C         -6.0412918082       -0.6026045515       -0.5853032402
 C         -6.7043228695        0.5390705782       -1.0054362355
 C         -6.1691228448        1.7882764037       -0.7296016808
 C         -4.9792430705        1.9049654108       -0.0276585738
 C         -4.3149732343        0.7671254944        0.4020810640
 H         -3.3893016150        0.8227460214        0.9510043100
 H         -4.5604565931        2.8752442089        0.1856440784
 H         -6.6818691754        2.6769949362       -1.0621541049
 H         -7.6315987198        0.4516996919       -1.5484062667
 H         -6.4215155689       -1.5934435279       -0.7748116189
 H         -3.3289504781       -2.5725682606       -1.4680597347
 H         -2.6668886975       -0.9923745649       -3.0723164758
 H         -1.2108951063        0.9219328733       -3.6241650451
 H          0.2233582720        1.9319439073       -1.8931851174
 H          0.3150760563        0.5988887691        1.6355943909
 C          0.0596227480        2.6217302608        1.0069792956
 C         -1.1241255012        2.8761989189        1.8893915176
 C          0.2586788084        3.1769545491        2.3836473907
 H          0.5615604137        4.2082967864        2.4835731300
 H          0.6870584153        2.5225694236        3.1292347017
 H         -1.7753847888        3.7036001233        1.6538897557
 H         -1.6306802816        2.0194720236        2.3098748395
 H          0.2243141546        3.2927528084        0.1745068138
