  62
        -98.94091222
 C         -2.3857264607       -1.2606237475        0.1364701990
 C         -2.2679942506        0.1482578551        0.0256845177
 C         -3.3810485782        0.9266126914        0.5917200406
 C         -4.4010813434        0.3025232761        1.2055471312
 C         -5.5944137966        0.9616710909        1.8419568055
 C         -6.7193309054        1.3014942621        0.8546372598
 C         -6.4306124495        2.4743995982       -0.0832073096
 H         -7.3741437764        2.7386321858       -0.5648313224
 H         -6.1113530944        3.3369782315        0.5025851228
 C         -5.3895977954        2.1755658863       -1.1710857041
 H         -5.7520655479        2.5443270252       -2.1332795488
 H         -5.2653591922        1.0946335803       -1.2694754991
 C         -4.0201604506        2.8115729059       -0.9305403102
 H         -4.1106759826        3.8997376476       -0.9605108704
 H         -3.3529914338        2.5090203061       -1.7421285462
 C         -3.3619558700        2.4128999097        0.3970727449
 H         -2.3165325304        2.7318685333        0.3729123875
 H         -3.8595402975        2.9123408690        1.2282067890
 H         -7.6064036463        1.5456121796        1.4435195575
 H         -6.9471584387        0.4108102798        0.2645035054
 H         -5.2790939216        1.8663720584        2.3625090739
 H         -5.9837554868        0.2546096951        2.5776490331
 O         -4.4515014864       -1.0492753900        1.3381462559
 C         -3.4609411026       -1.8561789329        0.8045330547
 O         -3.6442755299       -3.0750655368        0.9945994660
 O         -1.3033638732        0.7463126231       -0.5176800076
 C         -1.3320516874       -2.2154616099       -0.4024775426
 C          0.0352229026       -1.7794811144        0.0597586059
 C          0.4289646409       -2.0503743881        1.3665617842
 C          1.6594818973       -1.6283400890        1.8334261242
 C          2.5174998935       -0.9192714990        1.0108480440
 C          2.1239224338       -0.6252237056       -0.2873497779
 C          0.8972838502       -1.0723266268       -0.7618124683
 H          0.5941703798       -0.8266377852       -1.7676602430
 N          2.9809107515        0.0998513929       -1.1303744913
 S          3.8274995799        1.4115142350       -0.5193075902
 O          3.1284548231        2.0637068728        0.5631118425
 O          4.1322611108        2.2284714781       -1.6741870323
 C          5.3393009361        0.6836325322        0.0821984165
 C          6.0624860450       -0.1224249424       -0.7751128703
 C          7.2439333887       -0.6891674032       -0.3245338817
 C          7.6823873837       -0.4394397090        0.9673998524
 C          6.9478576132        0.3757691973        1.8146151363
 C          5.7645932484        0.9449475516        1.3699070585
 H          5.1579854133        1.5808806048        1.9953728924
 H          7.2901333980        0.5697747415        2.8184858330
 H          8.6018424672       -0.8824594651        1.3161558274
 H          7.8181947947       -1.3233123825       -0.9806092131
 H          5.6894848683       -0.2892577607       -1.7716992930
 H          2.5700199468        0.3241160977       -2.0251488669
 H          3.4717459931       -0.5741530437        1.3735098752
 H          1.9537994320       -1.8488099157        2.8483758880
 H         -0.2488756560       -2.5883977487        2.0154017028
 H         -1.5574585442       -3.1817792126        0.0758812024
 C         -1.4039811260       -2.4502444129       -1.9045115268
 C         -2.7323914047       -2.6063230239       -2.5812700301
 C         -1.8757124252       -1.4140682694       -2.8777780009
 H         -1.3890622610       -1.3615993974       -3.8412179124
 H         -2.1759851528       -0.4531535280       -2.4911209724
 H         -2.8406682172       -3.3670834080       -3.3394047130
 H         -3.6156222857       -2.4637300665       -1.9752968202
 H         -0.6094289686       -3.1077964231       -2.2443683084
