  62
        -98.94377632
 C          1.4851726201        1.2607333397        0.7162394246
 C          2.5453890734        1.1755155225       -0.2183524637
 C          3.4299096117        0.0070265247       -0.0754330934
 C          3.1467968257       -0.9336500391        0.8433025652
 C          3.9266416973       -2.2008289497        1.0425602446
 C          3.3948276613       -3.3418149243        0.1633045935
 C          3.2014714550       -2.9576224830       -1.3033356746
 H          2.8402715231       -3.8445883697       -1.8285441383
 H          2.4196185883       -2.1979853493       -1.3776128363
 C          4.4663419282       -2.4308560070       -1.9940899048
 H          5.3490638371       -2.7075435097       -1.4163889885
 H          4.5575207831       -2.9064284813       -2.9729036888
 C          4.4666197769       -0.9194026289       -2.2277053391
 H          3.5407745843       -0.6243793900       -2.7279786247
 H          5.2927554073       -0.6787402972       -2.9021697761
 C          4.6349233493       -0.0540120422       -0.9727925980
 H          5.5102682642       -0.3894265946       -0.4123764264
 H          4.8126351162        0.9733972806       -1.3039168251
 H          4.0910438005       -4.1798130798        0.2302296961
 H          2.4321843862       -3.6708556870        0.5605089755
 H          4.9737803683       -2.0131440109        0.8117971427
 H          3.8441471489       -2.4930864873        2.0906923416
 O          2.0794245545       -0.8514319125        1.6777623645
 C          1.2380826716        0.2455117353        1.6464464371
 O          0.3166981814        0.2101750564        2.4854276167
 H         -1.9761025171        1.5184967054        1.2879202222
 C         -1.8246451586        1.6350980164        0.2229404368
 C         -0.6060494897        2.1109810580       -0.2407943607
 C         -0.4109630474        2.2191073608       -1.6135712223
 C         -1.4167542483        1.8626892465       -2.4942698531
 C         -2.6324389384        1.3907983734       -2.0285417928
 C         -2.8317908873        1.2725649479       -0.6602636399
 N         -4.0607529538        0.7594335803       -0.1816505697
 S         -4.2936236754       -0.8783202855       -0.4535589682
 O         -4.3220112887       -1.1099062260       -1.8746237711
 O         -5.4870525765       -1.2318231454        0.2800244366
 C         -2.8685291733       -1.6658525715        0.2728733448
 C         -2.9414846336       -2.1084797239        1.5782708666
 C         -1.8111660220       -2.6501158781        2.1672274593
 C         -0.6300139446       -2.7295379398        1.4472363574
 C         -0.5728354528       -2.2774412073        0.1388670076
 C         -1.6994618899       -1.7361011519       -0.4574045423
 H         -1.6880039478       -1.3722893899       -1.4725107972
 H          0.3505724816       -2.3323485131       -0.4160356871
 H          0.2557110256       -3.1312426705        1.9137444618
 H         -1.8480803164       -2.9966625385        3.1874374839
 H         -3.8799953862       -2.0276284710        2.1034739688
 H         -4.2022560088        0.9413911097        0.8029820686
 H         -3.4173807832        1.0880435294       -2.7022716233
 H         -1.2518550785        1.9490412736       -3.5577516433
 H          0.5449779452        2.5561650143       -1.9834901626
 C          0.4924009266        2.4143360122        0.7480578715
 H          0.0484925829        2.3952905595        1.7525010000
 C          1.1156537551        3.7767966815        0.5308578711
 C          0.3430579186        4.9932313571        0.9407844936
 C          1.5541655403        4.5765947421        1.7189670540
 H          2.4519436500        5.1705061860        1.6362460696
 H          1.4073057897        4.1437147261        2.6980508891
 H         -0.6261322655        4.8421030146        1.3922474436
 H          0.4062941640        5.8758192314        0.3231618288
 H          1.7254110590        3.8436794436       -0.3592586281
 O          2.7697309059        2.0174941240       -1.1267283516
