  62
        -98.94947475
 C          1.0874719196        1.7176684499        0.1247033601
 C          1.7068819595        0.9211168702        1.1164266505
 C          2.8451816303        0.1099732010        0.6711179612
 C          3.2232090211        0.1449648213       -0.6196687986
 C          4.3634594220       -0.6251358480       -1.2283686279
 C          4.0064928431       -2.0717977782       -1.5973316682
 C          3.8917055929       -3.0357405783       -0.4156370483
 H          3.8835585038       -4.0464626483       -0.8286526384
 H          4.7777354725       -2.9467941778        0.2146090823
 C          2.6279040023       -2.8454362091        0.4344461009
 H          1.8849539423       -2.2887317896       -0.1430456296
 H          2.1846468527       -3.8217145094        0.6479812705
 C          2.8650104310       -2.1541099091        1.7774218911
 H          3.4942084909       -2.7896605187        2.4051904115
 H          1.9007394706       -2.0397910497        2.2784971405
 C          3.5216563902       -0.7712123887        1.6787401916
 H          3.4346530492       -0.2831173288        2.6530079416
 H          4.5787385204       -0.8766397180        1.4346781623
 H          3.0647101135       -2.0703560987       -2.1525661188
 H          4.7880548538       -2.4405387177       -2.2661529477
 H          4.6426114322       -0.0951354078       -2.1416474876
 H          5.2168640115       -0.6208839775       -0.5490804673
 O          2.6062879612        0.9280911210       -1.5435008389
 C          1.5189574105        1.7204788503       -1.2024724096
 O          1.0427458007        2.3729287700       -2.1512459599
 H         -0.6079487589        0.1658518889       -0.6341771511
 C         -1.4485922193        0.8320254784       -0.7341166416
 C         -1.3578330704        2.1260941584       -0.2454441814
 C         -2.4434759508        2.9760595478       -0.4294626721
 C         -3.5740574301        2.5339300971       -1.0936582429
 C         -3.6583193590        1.2397209071       -1.5758572930
 C         -2.5788103185        0.3824224277       -1.3979121923
 N         -2.6049729574       -0.9303597423       -1.8846177324
 S         -1.7147372271       -2.1442275117       -1.1664208219
 O         -0.3068859771       -1.9632257309       -1.4177140510
 O         -2.2980925360       -3.3604693321       -1.6915539324
 C         -2.0765745183       -2.0122656421        0.5747237179
 C         -1.1204142292       -1.5568799215        1.4575188485
 C         -1.4524882502       -1.4092714418        2.7947051683
 C         -2.7304722003       -1.7264479526        3.2264371475
 C         -3.6788671094       -2.1974653232        2.3301708268
 C         -3.3534265484       -2.3374178629        0.9913310570
 H         -4.0604563977       -2.7067944433        0.2664692165
 H         -4.6702153494       -2.4495484338        2.6706271961
 H         -2.9863359810       -1.6075285328        4.2674328573
 H         -0.7080404508       -1.0307103514        3.4777033388
 H         -0.1327792891       -1.3154019309        1.0982469492
 H         -3.4914237870       -1.2506987728       -2.2426740030
 H         -4.5403370384        0.8993612366       -2.0958181836
 H         -4.4060704804        3.2066880466       -1.2357187634
 H         -2.3985579516        3.9873278878       -0.0590722520
 C         -0.1177169511        2.5533455192        0.5053208494
 H         -0.2868852817        2.3493390690        1.5744565693
 C          0.1806502781        4.0312123493        0.3374027297
 C         -0.3593312132        5.0369935290        1.3087867894
 C          1.0997291470        4.6975809699        1.3160392903
 H          1.8061755768        5.4259741803        0.9473400808
 H          1.4804800169        4.0921153101        2.1257496105
 H         -0.6559691735        6.0054077588        0.9348077492
 H         -0.9626294635        4.6726535285        2.1266007890
 H          0.2673202086        4.3190276495       -0.7043178103
 O          1.3271262387        0.8896641699        2.3185704802
