  62
        -98.94834341
 C         -0.8410189614       -1.2872690216        0.0455966363
 C         -1.7112469741       -0.9352822341        1.1031164898
 C         -2.4901670649        0.2920364538        0.9061920947
 C         -2.3197022930        1.0177981513       -0.2138122934
 C         -3.0571412220        2.2800917165       -0.5703467949
 C         -4.4405820085        2.0408928937       -1.1923225967
 C         -5.5230716605        1.5619063275       -0.2243555724
 H         -5.5558923738        2.2248739914        0.6407981688
 H         -6.4796791722        1.6552081994       -0.7423426976
 C         -5.3573516874        0.1096677685        0.2442459039
 H         -4.6717959289       -0.4143236589       -0.4256208103
 H         -6.3190839361       -0.4049164226        0.1854758171
 C         -4.8519223112       -0.0379366985        1.6792368352
 H         -4.7314894909       -1.1028475273        1.8939326041
 H         -5.5932543855        0.3633527560        2.3739879334
 C         -3.5081202475        0.6527482290        1.9456701704
 H         -3.6414596282        1.7336659307        1.9889826852
 H         -3.1300076550        0.3100444547        2.9125114802
 H         -4.7684618771        2.9880616625       -1.6266775508
 H         -4.3362927210        1.3197791422       -2.0059863479
 H         -3.1560473212        2.9111396354        0.3133860187
 H         -2.4399827511        2.7987581756       -1.3054812112
 O         -1.4240669459        0.6790080232       -1.1785838031
 C         -0.6728655081       -0.4832125659       -1.0817580219
 O          0.0919080352       -0.6828928517       -2.0432114744
 O         -1.8375598184       -1.6187283804        2.1561164359
 C         -0.0419434503       -2.5718704637        0.1440276412
 C          1.4358007312       -2.3045051182        0.0070983306
 C          2.2977743520       -3.1600312094       -0.6684535407
 C          3.6481022224       -2.8698168687       -0.7551923669
 C          4.1647993708       -1.7221165157       -0.1833676310
 C          3.3107574757       -0.8633510286        0.5009676895
 C          1.9629719636       -1.1660724420        0.6028710645
 H          1.3130140262       -0.4970070213        1.1479992400
 N          3.8035040896        0.3085033155        1.0935210226
 S          2.8614267649        1.6589149843        1.3130307634
 O          3.8190720400        2.7076497933        1.6014208155
 O          1.8734377882        1.4282917202        2.3393799370
 C          2.0492153955        2.0561051684       -0.2269900229
 C          2.4987710225        1.5757947400       -1.4391316328
 C          1.8672975367        1.9942671363       -2.5998906913
 C          0.8223995236        2.9002302651       -2.5341805678
 C          0.3915294146        3.3853655482       -1.3096896638
 C          1.0026284111        2.9531770538       -0.1452167004
 H          0.6853836123        3.2885227891        0.8299777452
 H         -0.4161258832        4.0981223799       -1.2557794372
 H          0.3368763273        3.2248671990       -3.4410339486
 H          2.1925029976        1.6048309174       -3.5507973050
 H          3.3116794947        0.8697228304       -1.4813115237
 H          4.7605982661        0.5427299584        0.8762453899
 H          5.2155737527       -1.4886642899       -0.2617392030
 H          4.3062569991       -3.5418489894       -1.2843503404
 H          1.9114258215       -4.0535147450       -1.1304710206
 H         -0.2270281217       -2.9556786509        1.1593177932
 C         -0.5619778610       -3.5817382268       -0.8603130713
 C         -0.5454731801       -5.0476618096       -0.5484648658
 C         -1.8434399140       -4.2994107306       -0.5634539667
 H         -2.5358891193       -4.4775380495       -1.3724945891
 H         -2.3223670292       -4.0837600321        0.3807561132
 H         -0.3490407761       -5.7435834530       -1.3502105304
 H         -0.1496269903       -5.3518624611        0.4087716768
 H         -0.3879286962       -3.2719880358       -1.8848804354
