  62
        -98.93700494
 C         -2.4335263094       -1.3014825571        0.2619935973
 C         -2.5563362315       -0.3754702755       -0.8013704004
 C         -3.1778407169        0.9165841448       -0.4683065118
 C         -3.5801431804        1.1552808644        0.7921834589
 C         -4.1041839342        2.4645622690        1.3084491564
 C         -2.9269968509        3.4339934677        1.5419366398
 C         -2.9257016828        4.6609388735        0.6296021017
 H         -3.6807219499        5.3668877321        0.9821483843
 H         -1.9497892926        5.1403898421        0.7327562570
 C         -3.1928949538        4.3933049215       -0.8546542524
 H         -2.8964933006        5.2934013739       -1.3974664096
 H         -4.2645113120        4.2689433929       -1.0182451271
 C         -2.4622788330        3.1905374347       -1.4661797696
 H         -2.1519454872        3.4609095020       -2.4781001101
 H         -1.5504288195        2.9647303913       -0.9099747226
 C         -3.3196418681        1.9153762360       -1.5831158483
 H         -4.3714729330        2.1908677584       -1.6975529525
 H         -3.0188738384        1.3763225572       -2.4862110678
 H         -1.9937289880        2.8812451810        1.4071083345
 H         -2.9389821774        3.7786345056        2.5771273512
 H         -4.8137748369        2.8859667082        0.6002179024
 H         -4.6213717356        2.2623313010        2.2464565698
 O         -3.4673409748        0.2354093779        1.7837476685
 C         -2.8849791895       -0.9968054261        1.5506369883
 O         -2.8329443643       -1.7335739626        2.5552465543
 H         -0.1335742250       -1.2698010838       -1.5433647050
 C          0.4144533577       -1.6755166190       -0.7056878385
 C         -0.2529276794       -2.4419574110        0.2395944552
 C          0.4673501340       -2.9350869849        1.3209691598
 C          1.8173914159       -2.6593919456        1.4536998159
 C          2.4711524427       -1.8712976593        0.5227111643
 C          1.7572172318       -1.3712401327       -0.5576795813
 N          2.4027716654       -0.5088285195       -1.4785734840
 S          2.6728080536        1.0306396594       -0.8423088395
 O          1.6489160201        1.3971962759        0.1121886251
 O          2.8289999758        1.9060063999       -1.9836074068
 C          4.2408186869        0.8536290618       -0.0193317920
 C          4.3212322017        1.0028366216        1.3509255793
 C          5.5519809643        0.8471821789        1.9699065361
 C          6.6729173108        0.5459821262        1.2114068497
 C          6.5751356424        0.4007930616       -0.1647482672
 C          5.3483005216        0.5561712535       -0.7897418303
 H          5.2259370338        0.4567625494       -1.8553195601
 H          7.4492173987        0.1666229762       -0.7506566188
 H          7.6285162325        0.4235969327        1.6963460361
 H          5.6295386303        0.9593146396        3.0394213125
 H          3.4206595794        1.2300041693        1.8989205944
 H          1.8719853376       -0.4058390277       -2.3341068331
 H          3.5180692251       -1.6376167787        0.6289449138
 H          2.3632378067       -3.0506584498        2.2985439125
 H         -0.0457910185       -3.5165571001        2.0730964940
 C         -1.7440339685       -2.6534334407        0.1280795758
 H         -2.0673627696       -3.2401259733        0.9980992253
 C         -2.1170367246       -3.4139328771       -1.1278634381
 C         -1.9174703058       -4.8984045415       -1.1591364967
 C         -3.3025524412       -4.3290379887       -1.1025029572
 H         -3.9246070064       -4.3884431115       -1.9828602921
 H         -3.8507439244       -4.4100500433       -0.1750132282
 H         -1.5275130421       -5.3693041286       -0.2695080226
 H         -1.5857632945       -5.3530521379       -2.0798310009
 H         -1.9387022545       -2.8605807465       -2.0398918474
 O         -2.1674678399       -0.5871806625       -1.9832956192
