  62
        -98.94525927
 C         -1.4775078823       -0.7925818357       -0.5373225365
 C         -2.6120587153       -1.0285473877        0.2828203709
 C         -3.3636093446        0.1516499878        0.7246004908
 C         -2.9306684605        1.3737707646        0.3660367888
 C         -3.6161004198        2.6639753011        0.7100151245
 C         -4.6206793565        3.0691734070       -0.3777837725
 C         -5.5700570688        1.9440320657       -0.7897796327
 H         -6.2522693703        2.3519745038       -1.5386467464
 H         -4.9940222720        1.1530846350       -1.2752941579
 C         -6.3803764928        1.3420314393        0.3666550139
 H         -7.4191581507        1.2341610069        0.0476771642
 H         -6.3720769873        2.0227319612        1.2186912438
 C         -5.9076907423       -0.0407020296        0.8194816819
 H         -5.8231235459       -0.7010304749       -0.0471692420
 H         -6.6711522841       -0.4619602829        1.4788982321
 C         -4.5770126333       -0.0752672468        1.5820285830
 H         -4.6049392281        0.6419183263        2.4053261767
 H         -4.4609604554       -1.0776908531        2.0046401330
 H         -5.1978964062        3.9212406674       -0.0140009328
 H         -4.0631690545        3.3882388038       -1.2613573289
 H         -4.1235416306        2.5540740821        1.6666749199
 H         -2.8552334321        3.4412608183        0.8019461514
 O         -1.8329630119        1.5665379913       -0.4030778927
 C         -1.0750994200        0.5010058305       -0.8692303502
 O         -0.1053781823        0.8588327128       -1.5656418606
 O         -2.9832765446       -2.1845589394        0.6239843007
 C         -0.6974088230       -2.0247396913       -0.9671944873
 C          0.3709101426       -2.3306999586        0.0570231819
 C          0.3717503176       -3.5401087677        0.7406433374
 C          1.3240393150       -3.7964234138        1.7110762156
 C          2.2751388319       -2.8450619962        2.0276936400
 C          2.2846350995       -1.6301218364        1.3477607608
 C          1.3512887699       -1.3919638389        0.3502342208
 H          1.3565757077       -0.4487503883       -0.1696264807
 N          3.2462531647       -0.6621451621        1.6586227966
 S          2.9822184861        0.9878407099        1.5268820638
 O          3.8013187684        1.5554058611        2.5802362825
 O          1.5778101038        1.3162149415        1.5705324629
 C          3.7315873228        1.3965623018       -0.0356321538
 C          2.9662771182        1.7007936222       -1.1417543716
 C          3.6090874429        1.9968511665       -2.3354352641
 C          4.9928372113        1.9850411436       -2.4025345926
 C          5.7477275254        1.6792585685       -1.2794544830
 C          5.1134859182        1.3820864940       -0.0854435179
 H          5.6601653960        1.1528157919        0.8141385322
 H          6.8244647195        1.6719543084       -1.3325766976
 H          5.4845086321        2.2166389668       -3.3343515453
 H          3.0155475571        2.2316229385       -3.2047653515
 H          1.8890407137        1.6950258833       -1.0735110115
 H          3.8275440657       -0.8824271946        2.4534937483
 H          3.0042850213       -3.0332556054        2.8011620946
 H          1.3150488202       -4.7384339428        2.2381503397
 H         -0.3939208396       -4.2703979815        0.5245201327
 H         -1.4237438982       -2.8491332717       -0.9409091250
 C         -0.1091041483       -1.9515930601       -2.3609809456
 C          0.1963323012       -3.2277772874       -3.0846200842
 C         -0.9447676019       -2.3660066375       -3.5332354214
 H         -0.8472809879       -1.8124113168       -4.4547907465
 H         -1.9505433528       -2.7070391286       -3.3344960550
 H          1.0817453292       -3.2697092535       -3.6997611014
 H         -0.0367376737       -4.1555529962       -2.5844730877
 H          0.5656392232       -1.1183342671       -2.5029892571
