  62
        -98.94054593
 C         -2.3652890364       -0.7809620999       -0.1124119145
 C         -3.5610695241       -1.0722557094        0.5868273780
 C         -4.7941213037       -0.5482372464       -0.0102803243
 C         -4.7354582409        0.1404165675       -1.1648742856
 C         -5.9079176336        0.7182688354       -1.9104245247
 C         -6.3547990868        2.0950123633       -1.3996364456
 C         -7.0730750635        2.0861197301       -0.0496524720
 H         -7.5187978099        3.0739732719        0.0825276864
 H         -7.8880355363        1.3622723255       -0.0778286521
 C         -6.1618802560        1.7917173532        1.1501592121
 H         -5.1187508780        1.9359437329        0.8589229492
 H         -6.3717089627        2.5045521741        1.9508322809
 C         -6.3219832961        0.3898207812        1.7385841233
 H         -7.3262035499        0.2786426793        2.1534244445
 H         -5.6055890222        0.2770532013        2.5564052808
 C         -6.0785702689       -0.7466488763        0.7367721567
 H         -6.9151831475       -0.8225866550        0.0427777553
 H         -5.9976989233       -1.6834822499        1.2933695068
 H         -7.0338670962        2.5142370669       -2.1456039388
 H         -5.4797509934        2.7465657907       -1.3430482149
 H         -5.5924106851        0.8227580317       -2.9506729429
 H         -6.7469843285        0.0232629997       -1.8694838513
 O         -3.5666018834        0.3820995491       -1.8166952213
 C         -2.3533528850       -0.0495682883       -1.2998572602
 O         -1.3627536528        0.2717402220       -1.9835098777
 O         -3.5950332736       -1.7347726574        1.6585521648
 C         -1.0465311104       -1.2733535904        0.4539834887
 C         -0.1290529349       -0.1078053681        0.7293126595
 C         -0.6054796407        0.9538026074        1.4958589637
 C          0.1992787362        2.0398052129        1.7775405786
 C          1.5027644913        2.0856250018        1.3141686266
 C          1.9880928877        1.0326677289        0.5490033268
 C          1.1737314637       -0.0550804481        0.2622364644
 H          1.5787892873       -0.8557744964       -0.3332286836
 N          3.2974360486        1.0596447646        0.0437477231
 S          4.1510417863       -0.3916829111       -0.0687618163
 O          3.8061770717       -1.0497279531       -1.3035636891
 O          3.9727697827       -1.1644259366        1.1399208663
 C          5.8212450645        0.2276458051       -0.1633517422
 C          6.5761784633        0.3162292554        0.9911854073
 C          7.8619337812        0.8280323085        0.9140555194
 C          8.3674240860        1.2427353578       -0.3089437745
 C          7.5984061314        1.1465374216       -1.4592950944
 C          6.3123913220        0.6348045666       -1.3894384971
 H          5.6811594814        0.5328331241       -2.2569235092
 H          7.9958798635        1.4667727878       -2.4088759892
 H          9.3681551427        1.6408096891       -0.3666950333
 H          8.4635724073        0.9006991282        1.8056974971
 H          6.1451026731       -0.0274240249        1.9177454681
 H          3.8603571069        1.7978658880        0.4432843989
 H          2.1340348847        2.9327554863        1.5357016312
 H         -0.1869343524        2.8554062879        2.3704650565
 H         -1.6212088643        0.9132729803        1.8660698830
 H         -1.2984227624       -1.7421624712        1.4176349711
 C         -0.4374912516       -2.3239818811       -0.4494856085
 C          0.5054441654       -3.3441797105        0.1124459471
 C         -0.8728207681       -3.7508366234       -0.3123652655
 H         -0.9835090291       -4.3443822259       -1.2073616287
 H         -1.5986491000       -3.9758394231        0.4553941073
 H          1.3483983459       -3.6508547218       -0.4892242549
 H          0.7223855206       -3.2949364282        1.1691303254
 H         -0.2460382296       -1.9532163228       -1.4510015445
