  62
        -98.94785546
 C         -0.7617206828       -1.2528199483        0.5850951499
 C         -1.1654421411       -0.6853474569       -0.6475385675
 C         -2.1137969445        0.4309853196       -0.5497457335
 C         -2.4779800919        0.8951306587        0.6588185448
 C         -3.4628710962        2.0015236945        0.9234749474
 C         -4.9266262840        1.5373343334        0.9153116016
 C         -5.4988995910        1.2104949617       -0.4648364011
 H         -6.5806599073        1.1190918425       -0.3480758237
 H         -5.3143795209        2.0456852693       -1.1408666877
 C         -4.9600900285       -0.0859432141       -1.0859939260
 H         -4.4958806820       -0.6974642151       -0.3086261768
 H         -5.7908374237       -0.6661128572       -1.4942448205
 C         -3.9534146893        0.1229575366       -2.2176303969
 H         -4.4455271342        0.6161011422       -3.0587274672
 H         -3.6107857499       -0.8581610077       -2.5556151505
 C         -2.7206995820        0.9457342187       -1.8194059927
 H         -1.9710669717        0.8474274833       -2.6075912047
 H         -2.9898499719        1.9953795240       -1.7158509626
 H         -5.0205504684        0.6639674473        1.5650333149
 H         -5.5254040400        2.3403181196        1.3515508816
 H         -3.2347571275        2.3922574941        1.9172561003
 H         -3.3314005367        2.7984827797        0.1926243830
 O         -1.9733180067        0.3944877506        1.8194470221
 C         -1.1405152012       -0.7127276559        1.8126984311
 O         -0.8053591068       -1.1118756226        2.9482220784
 H          1.6244437019       -0.3120635766        0.6120732523
 C          2.0449027530       -1.0690039713       -0.0346180639
 C          1.3824611165       -2.2811548528       -0.1787696088
 C          1.9453166619       -3.2544387857       -0.9949024954
 C          3.1375937565       -3.0102913863       -1.6536923626
 C          3.7921291605       -1.8014279997       -1.5113429420
 C          3.2374485698       -0.8210768815       -0.6945821416
 N          3.8595377484        0.4220996167       -0.5604223050
 S          3.4441945979        1.5565285820        0.5726660756
 O          4.4602137461        2.5787009447        0.4291203033
 O          3.3162309021        0.9885021270        1.8948501306
 C          1.8894542494        2.2260852806        0.0228656171
 C          1.6629652928        2.3881784290       -1.3289465711
 C          0.4928789136        3.0038145323       -1.7419903483
 C         -0.4186324929        3.4571191466       -0.8020324254
 C         -0.1818162842        3.2791866983        0.5515765059
 C          0.9817134721        2.6548198783        0.9699781698
 H          1.1993653431        2.4868746525        2.0136704770
 H         -0.8927568762        3.6259986543        1.2840382532
 H         -1.3171804004        3.9568948778       -1.1268184097
 H          0.2987570748        3.1333944124       -2.7944266698
 H          2.3950565073        2.0329392513       -2.0349573248
 H          4.7721921782        0.5362738135       -0.9705512897
 H          4.7211063084       -1.6117351545       -2.0261844012
 H          3.5640192768       -3.7737417469       -2.2864953450
 H          1.4506577060       -4.2040010376       -1.1163403318
 C          0.1045906241       -2.4974147314        0.5936478250
 H          0.3745496795       -2.6747999815        1.6460705418
 C         -0.7046667735       -3.6777347786        0.0914721774
 C         -0.4626295372       -5.0540657368        0.6317676675
 C         -1.7061765782       -4.3084628685        1.0099923678
 H         -2.6506413756       -4.6344086332        0.6006107730
 H         -1.7796704443       -3.9065819926        2.0106060118
 H         -0.5569444660       -5.8960462779       -0.0375155169
 H          0.3045074875       -5.1694228546        1.3827095737
 H         -0.9784811833       -3.5768313487       -0.9527110812
 O         -0.7722189224       -1.0993352393       -1.7681497163
