  62
        -98.94127328
 C         -1.6427006192       -0.4405623315        0.9675373607
 C         -2.8743073890       -1.0294202314        0.5904753002
 C         -4.0012649292       -0.1002278015        0.4252046010
 C         -3.8275994395        1.2176997383        0.6263989620
 C         -4.8849385597        2.2817626182        0.5095185029
 C         -5.1141920298        2.7799744893       -0.9240369467
 C         -5.8387395696        1.7986811199       -1.8463877175
 H         -6.7573191296        1.4604086494       -1.3658272278
 H         -6.1254657498        2.3532862206       -2.7421588870
 C         -4.9978523794        0.5848710504       -2.2662415685
 H         -3.9414317294        0.7892193305       -2.0767696583
 H         -5.1036487194        0.4226855713       -3.3413258986
 C         -5.3806397391       -0.7218452202       -1.5714368795
 H         -4.6978335790       -1.5039248398       -1.9128590202
 H         -6.3937450791       -1.0087941202       -1.8621672098
 C         -5.3090586491       -0.6667402914       -0.0399616995
 H         -6.1394042392       -0.0819336819        0.3549852710
 H         -5.3851959189       -1.6871782917        0.3433599397
 H         -5.7112251800        3.6926397592       -0.8598390560
 H         -4.1482254599        3.0443525999       -1.3604099365
 H         -5.8241307696        1.9124078177        0.9223084426
 H         -4.5457649099        3.1240620378        1.1162883836
 O         -2.6290091396        1.7461714883        0.9896028924
 C         -1.5151862194        0.9407793884        1.1501796818
 O         -0.4799531996        1.5617697183        1.4637134623
 O         -3.0544922788       -2.2610389113        0.3991762092
 C         -0.3636567490       -1.2359506314        1.1740648300
 C          0.3092568610       -1.5215278602       -0.1472695802
 C         -0.2604996688       -2.3713413195       -1.0895554809
 C          0.3872414813       -2.6180708684       -2.2858691611
 C          1.6161467811       -2.0419370880       -2.5569194507
 C          2.1908250810       -1.1866803986       -1.6240714200
 C          1.5279725209       -0.9241692397       -0.4335533697
 H          1.9684266408       -0.2466004002        0.2815428208
 N          3.4234071608       -0.5715019882       -1.8778628495
 S          4.5111249908       -0.2829568789       -0.6408837892
 O          5.7869875808       -0.1537386581       -1.3120878392
 O          4.4331909710       -1.2966991398        0.3846337699
 C          4.0384822605        1.3041266504        0.0099157120
 C          3.9483723903        2.3678600711       -0.8655279071
 C          3.5955725100        3.6126399007       -0.3708546961
 C          3.3419283500        3.7722338195        0.9830321840
 C          3.4414475602        2.6955446588        1.8497947332
 C          3.7945328905        1.4482301393        1.3607071222
 H          3.8784149306        0.5835975088        2.0008508915
 H          3.2386625302        2.8203335779        2.9013628033
 H          3.0622817598        4.7407659191        1.3665573148
 H          3.5161400098        4.4538601612       -1.0406374354
 H          4.1560077603        2.2053907120       -1.9101034972
 H          3.8806283009       -0.8596039574       -2.7302276897
 H          2.1263226912       -2.2478370371       -3.4857769408
 H         -0.0639991586       -3.2767921280       -3.0126676216
 H         -1.2178226187       -2.8227097799       -0.8796730913
 H          0.3046482709       -0.5775141917        1.7456776505
 C         -0.5598330187       -2.5145826121        1.9654199190
 C          0.6459593014       -3.1817504823        2.5534694984
 C         -0.3455049887       -2.5001291632        3.4473216790
 H         -0.9861715586       -3.1101828039        4.0663415385
 H         -0.0610730889       -1.5630246035        3.9038578397
 H          0.6862971016       -4.2603164423        2.5589186276
 H          1.6055856013       -2.7102704020        2.3969192888
 H         -1.3494943486       -3.1461595619        1.5816663885
