  62
        -98.94127673
 C         -2.1264854298       -0.0896771297        0.7101958608
 C         -2.4375214001        0.5315208909       -0.5246503488
 C         -2.1271042698        1.9670941409       -0.6178691384
 C         -1.5761504692        2.5973843203        0.4345159617
 C         -1.1901201288        4.0478779902        0.4620603721
 C          0.2602982210        4.2713306000        0.0093493516
 C          0.6330076503        3.5369726405       -1.2779964988
 H          1.6734949503        3.7821680503       -1.5029013992
 H          0.5953632601        2.4585483004       -1.1064768593
 C         -0.2461960701        3.8874033612       -2.4862539683
 H         -0.7673310698        4.8285828712       -2.3055263177
 H          0.3981998196        4.0338044214       -3.3556497385
 C         -1.2639650905        2.8099183816       -2.8647914684
 H         -0.7593228808        1.8430324615       -2.9488394590
 H         -1.6651633509        3.0539575221       -3.8522239181
 C         -2.4560319802        2.6562903815       -1.9114589779
 H         -2.9064466699        3.6336978315       -1.7263594373
 H         -3.1978738505        2.0235244019       -2.4074994379
 H          0.4137962612        5.3431625801       -0.1283209080
 H          0.9343435213        3.9323655095        0.7981157612
 H         -1.8683249290        4.6032629507       -0.1832873874
 H         -1.3011695883        4.4117185798        1.4850613423
 O         -1.2814017989        1.9642217398        1.5992243713
 C         -1.5246908992        0.6085485498        1.7580947208
 O         -1.1651982088        0.1498116092        2.8605177105
 H          0.2497734901       -1.8298487705        1.3703448791
 C         -0.0102845604       -2.2567087801        0.4089424290
 C         -1.3466325606       -2.2810537796        0.0233872896
 C         -1.6749689213       -2.8361820490       -1.2062469605
 C         -0.6837482417       -3.3175737489       -2.0446937911
 C          0.6470645985       -3.2557332494       -1.6745244816
 C          0.9819727291       -2.7279215200       -0.4351417816
 N          2.3538179793       -2.6520203704       -0.0881621021
 S          3.1955444793       -1.3673849604       -0.7737958719
 O          2.4752973989       -0.9176529497       -1.9379945414
 O          4.5516011091       -1.8154875406       -0.9932347427
 C          3.2103027401       -0.1094474009        0.4937797386
 C          2.0298670204        0.5366700193        0.8056940293
 C          2.0212490011        1.4506883288        1.8471690597
 C          3.1910741014        1.7168350183        2.5427636593
 C          4.3719406711        1.0720069081        2.2082508686
 C          4.3816989205        0.1416265885        1.1814304982
 H          5.2708722702       -0.3955083416        0.8939186476
 H          5.2797445114        1.2841182777        2.7496204983
 H          3.1760177819        2.4296617479        3.3521351996
 H          1.0952468513        1.9296108590        2.1237548103
 H          1.1354307601        0.3138860897        0.2417889196
 H          2.5183110097       -2.6737037309        0.9087389778
 H          1.4340099181       -3.5940176393       -2.3293894521
 H         -0.9517501922       -3.7314537684       -3.0050880912
 H         -2.7044023714       -2.8614813486       -1.5223878901
 C         -2.3453973501       -1.5829412597        0.9139508803
 H         -2.0809637497       -1.7895745202        1.9595994301
 C         -3.7833129303       -1.9910084592        0.6827891107
 C         -4.2522738004       -3.3275574893        1.1716948003
 C         -4.7151910398       -2.0756198695        1.8525149110
 H         -5.7396610198       -1.7627524792        1.7176420916
 H         -4.3144644793       -1.8459802800        2.8291656810
 H         -4.9598417008       -3.8774815889        0.5703711804
 H         -3.5354202103       -3.9496083097        1.6861507498
 H         -4.1904689306       -1.6181507987       -0.2483765790
 O         -2.9556356407       -0.0673961585       -1.5018116589
