  62
        -98.93348754
 C          2.4003779502        1.0979683106        0.3299686383
 C          2.4926277238       -0.1437522658        1.0072678810
 C          3.6807432430       -0.9789316180        0.7463763905
 C          4.6178672413       -0.5171779023       -0.1020797210
 C          5.8944869892       -1.1820221391       -0.5451515500
 C          5.6576436026       -2.3018613127       -1.5699405338
 C          4.5082981251       -3.2470173999       -1.2311216758
 H          3.5844488209       -2.6721336680       -1.1417324669
 H          4.3823183848       -3.9322755407       -2.0735497722
 C          4.7072893623       -4.0871852467        0.0282517977
 H          5.6227501770       -4.6742049559       -0.0731429659
 H          3.8688570611       -4.7860934679        0.0860900530
 C          4.7679151074       -3.3136177977        1.3476523728
 H          5.7421882047       -2.8545248900        1.4922422447
 H          4.6439721623       -4.0398727709        2.1562431868
 C          3.6677091257       -2.2718767710        1.5257701143
 H          2.6941536446       -2.7362231877        1.3282454115
 H          3.6328486965       -1.9763722899        2.5815091740
 H          6.5817701636       -2.8724226642       -1.6762817153
 H          5.4338464937       -1.8372908386       -2.5332505166
 H          6.4394862722       -1.5557269437        0.3165049470
 H          6.5032731430       -0.4054361134       -1.0133150946
 O          4.4911203049        0.6849918023       -0.7288526377
 C          3.4011531503        1.5163926583       -0.5467202890
 O          3.4660196017        2.5692841989       -1.2110525591
 O          1.6129395599       -0.5477934090        1.8176579038
 C          1.1740180205        1.9463084112        0.6182411558
 C          0.1290940834        1.8120281974       -0.4643831930
 C          0.3695085839        2.2395004910       -1.7662352921
 C         -0.6106668978        2.1139492769       -2.7333133303
 C         -1.8427625860        1.5657253560       -2.4242118120
 C         -2.0965719609        1.1427162500       -1.1242993865
 C         -1.1097068147        1.2675203373       -0.1561033792
 H         -1.3095750512        0.9174564659        0.8455897247
 N         -3.3611307391        0.6341025327       -0.7810288625
 S         -3.4998935509       -0.5649764658        0.3977447620
 O         -3.3203358397        0.0345194287        1.6957374240
 O         -2.6453092344       -1.6862618608        0.0753467357
 C         -5.2143113321       -1.0039357351        0.1790113890
 C         -5.5482542614       -2.1750555333       -0.4735441458
 C         -6.8878594055       -2.4830554132       -0.6544136068
 C         -7.8646559938       -1.6180357212       -0.1850937301
 C         -7.5138543964       -0.4460257517        0.4689602676
 C         -6.1769357307       -0.1332168473        0.6547582678
 H         -5.8566610600        0.7603768982        1.1644542534
 H         -8.2761177474        0.2227772691        0.8347881029
 H         -8.9060350882       -1.8598394212       -0.3275552442
 H         -7.1634814751       -3.3948784172       -1.1593339052
 H         -4.7544234757       -2.8196287786       -0.8155292886
 H         -3.9190378403        0.4059178564       -1.5932086323
 H         -2.6052491945        1.4696377232       -3.1822889848
 H         -0.4111571362        2.4437662519       -3.7418229032
 H          1.3340506393        2.6552526373       -2.0131148586
 H          0.7464490809        1.5247716916        1.5389068367
 C          1.4955561687        3.4078405867        0.8660643888
 C          0.5074908005        4.2456402976        1.6184219928
 C          1.8084330283        3.8645008659        2.2576325851
 H          2.5622607101        4.6255890177        2.3919035494
 H          1.7928036857        3.1217296085        3.0423386370
 H          0.3647934439        5.2710434016        1.3143283821
 H         -0.3911927138        3.7603826236        1.9697563172
 H          2.0400719068        3.8728869203        0.0549756680
