  62
        -98.93309659
 C         -1.8020020364       -0.7605276343        0.4207844559
 C         -2.1664795676        0.5265945903       -0.0471644940
 C         -3.5590367230        0.7163332888       -0.4877956590
 C         -4.4125506111       -0.3223636682       -0.4272504471
 C         -5.8654957888       -0.4488914917       -0.8362071203
 C         -6.6942409018        0.7901894009       -1.1636032790
 C         -6.9943390686        1.6915106659        0.0339907124
 H         -7.4881395972        2.5943589694       -0.3318706252
 H         -7.6963921371        1.1717533567        0.6909481333
 C         -5.7865619576        2.0919380349        0.8774418242
 H         -5.3335206075        1.2003248754        1.3157588692
 H         -6.1468506404        2.7096476536        1.7046475276
 C         -4.7088874697        2.8848791134        0.1411425054
 H         -3.9879550524        3.2312863713        0.8864757581
 H         -5.1550340494        3.7647206689       -0.3265889126
 C         -3.9278263711        2.1037018552       -0.9289933676
 H         -4.4691748225        2.0763421247       -1.8716206168
 H         -2.9840648829        2.6270772049       -1.1075492107
 H         -6.2231303181        1.3570678613       -1.9611450260
 H         -7.6507515457        0.4312368243       -1.5533072770
 H         -5.8690637032       -1.1093530047       -1.7104063143
 H         -6.3553220942       -1.0051193570       -0.0304687795
 O         -4.0155921703       -1.5476571186        0.0219349394
 C         -2.7202043078       -1.8091610799        0.4517961627
 O         -2.5489419500       -2.9846479188        0.8201896804
 O         -1.3527318696        1.4881310195       -0.0949371478
 C         -0.3647709944       -0.9309399047        0.8747032714
 C          0.5281562140       -1.3901942526       -0.2491060847
 C          0.1602135395       -2.4243192992       -1.1033463528
 C          1.0155965054       -2.8361294649       -2.1092487114
 C          2.2569209491       -2.2448408254       -2.2674667770
 C          2.6343431872       -1.2112302529       -1.4186343775
 C          1.7602232862       -0.7802347429       -0.4306467181
 H          2.0473028698        0.0389343616        0.2095933756
 N          3.8804303892       -0.5850595082       -1.5486660298
 S          4.7197112711       -0.1119555332       -0.1781160039
 O          6.0996898491       -0.0386681333       -0.6065499413
 O          4.4424137307       -0.9856904320        0.9372170409
 C          4.1268784348        1.5323628152        0.1553732470
 C          3.6304608470        1.8431340891        1.4056517438
 C          3.1782981714        3.1308901612        1.6462590111
 C          3.2322935012        4.0804390033        0.6378698824
 C          3.7390470107        3.7537401233       -0.6109502026
 C          4.1923147461        2.4681528821       -0.8577497246
 H          4.5941570723        2.1770673409       -1.8138805780
 H          3.7783129489        4.4958684319       -1.3919939591
 H          2.8752987748        5.0804763589        0.8271559252
 H          2.7821843191        3.3857523675        2.6162535184
 H          3.5993477792        1.0729699579        2.1608589311
 H          4.4879440384       -0.9794759986       -2.2516993126
 H          2.9281840129       -2.5796038568       -3.0436977147
 H          0.7185570771       -3.6380057165       -2.7685618465
 H         -0.7956894908       -2.9070368992       -0.9648358229
 H         -0.0376055501        0.0844587213        1.1513919319
 C         -0.2156095068       -1.8009444123        2.1150192267
 C          0.3233343395       -3.1960394749        2.0889885752
 C          1.1440802749       -2.0913477011        2.6803120604
 H          1.2719773319       -2.0615646739        3.7521752317
 H          2.0104082948       -1.7591253767        2.1255868894
 H         -0.1324903254       -3.9213097181        2.7455500463
 H          0.6297476529       -3.6064788404        1.1397832014
 H         -1.0067385636       -1.6109364651        2.8340271798
