  62
        -98.94396861
 C         -1.7755592506       -1.2086499343        0.4083251230
 C         -1.9106313243       -0.2889910566       -0.6594261614
 C         -3.2868187790       -0.0361541342       -1.1133477712
 C         -4.3063006119       -0.6931017765       -0.5306669953
 C         -5.7570069856       -0.4912206306       -0.8579561277
 C         -6.3833572942        0.5832536846        0.0417612769
 C         -5.5698159686        1.8753863627        0.1174621406
 H         -4.6194775730        1.6716661263        0.6164937867
 H         -6.1226348468        2.5715149191        0.7520057700
 C         -5.2942045358        2.5323585178       -1.2422583400
 H         -5.4777828702        3.6054510932       -1.1563149015
 H         -5.9877066667        2.1440943136       -1.9890547547
 C         -3.8599269864        2.3665090300       -1.7488604268
 H         -3.1562462866        2.6679237703       -0.9680794588
 H         -3.7173570362        3.0452790630       -2.5942075794
 C         -3.4764498724        0.9589600576       -2.2232677778
 H         -2.5083535436        1.0328718721       -2.7277359254
 H         -4.2136349195        0.5997431097       -2.9443550084
 H         -6.4764905635        0.1779722696        1.0519527943
 H         -7.3857093163        0.8037708490       -0.3296706404
 H         -5.8522751689       -0.2055082565       -1.9035512824
 H         -6.2801772156       -1.4355429516       -0.6988339540
 O         -4.1326221624       -1.5922232248        0.4713781056
 C         -2.8711556537       -1.8572759809        0.9783530955
 O         -2.8557681009       -2.6756746326        1.9199268421
 H          2.0850371830       -0.4102963831        0.4954151200
 C          1.4928393781        0.1697603011        1.1814162506
 C          0.2163059280       -0.2453523482        1.5244436638
 C         -0.5141493527        0.5241675936        2.4273180178
 C          0.0174465307        1.6806312467        2.9625568674
 C          1.2875820006        2.0992039348        2.6038370208
 C          2.0264805482        1.3396262570        1.7069621994
 N          3.3330758968        1.7133939687        1.3461493685
 S          3.7263351424        1.8121847345       -0.2848698048
 O          4.9244828949        2.6260984409       -0.3090095754
 O          2.6177629201        2.2969587226       -1.0719934189
 C          4.1598617269        0.1523613782       -0.7565909354
 C          3.4759717879       -0.4655232621       -1.7848374680
 C          3.8503408492       -1.7461356406       -2.1611382469
 C          4.8951171833       -2.3811506805       -1.5061088116
 C          5.5705888729       -1.7458845143       -0.4745880344
 C          5.2038591665       -0.4645936274       -0.0956531714
 H          5.7079442106        0.0674897321        0.6935815777
 H          6.3801739212       -2.2451996699        0.0327308444
 H          5.1819298667       -3.3783348688       -1.8016113483
 H          3.3225241179       -2.2425668186       -2.9601472178
 H          2.6596338173        0.0605333833       -2.2554481091
 H          3.6746820680        2.5314705072        1.8315464547
 H          1.7024075080        3.0071335293        3.0155858697
 H         -0.5620249065        2.2663259959        3.6606327176
 H         -1.5082741857        0.1987209996        2.7040968059
 C         -0.4030692518       -1.5112901495        0.9830059553
 H         -0.5768040278       -2.1893278814        1.8316318688
 C          0.4604070725       -2.2226166689       -0.0370718244
 C          1.5507433520       -3.1433902831        0.4198493659
 C          0.3097521102       -3.7033188214       -0.2061920840
 H          0.3729592480       -4.1168233757       -1.2013044295
 H         -0.4067241766       -4.2039198890        0.4290503557
 H          1.6805663065       -3.2696830467        1.4839775864
 H          2.4703477698       -3.1734530858       -0.1445966431
 H          0.6264516558       -1.6308862354       -0.9299776824
 O         -0.9365005767        0.2901545939       -1.2075593730
