  62
        -98.94703335
 C         -1.5155643969       -1.0741396927        0.0799413156
 C         -2.5280948171       -0.6150626185        0.9525982430
 C         -3.0988972837        0.7005655471        0.6392519945
 C         -2.6079469313        1.3988128309       -0.4015797694
 C         -3.1235877644        2.7330617058       -0.8559384347
 C         -4.2264569689        2.5757073708       -1.9122194674
 C         -5.3210723789        1.5844388262       -1.5170063785
 H         -6.0592709503        1.5773534989       -2.3216425077
 H         -4.8907699038        0.5818220923       -1.4648616377
 C         -6.0172137116        1.9055604014       -0.1871869516
 H         -5.8319415644        2.9448572415        0.0864478988
 H         -7.0951625718        1.7916842560       -0.3190765038
 C         -5.6129486539        0.9969766308        0.9751657068
 H         -5.7085096184       -0.0488729723        0.6729175748
 H         -6.3125470975        1.1656066440        1.7981568806
 C         -4.1982259799        1.2098979600        1.5290862941
 H         -4.0468948520        2.2666568481        1.7607598415
 H         -4.1166169314        0.6410035651        2.4603568440
 H         -4.6690233581        3.5562959636       -2.0963554964
 H         -3.7680187218        2.2291466037       -2.8411714371
 H         -3.5034697179        3.2808593596        0.0045510047
 H         -2.2898395054        3.2907179721       -1.2865093452
 O         -1.6085430795        0.9422145120       -1.1956494367
 C         -1.0257601827       -0.2922359442       -0.9673284309
 O         -0.1064883880       -0.5825460988       -1.7564596933
 H          0.3009144778       -0.5638833706        1.8336301446
 C          1.0389039065       -1.1762152354        1.3291524330
 C          0.6184294500       -2.2257214520        0.5206749785
 C          1.5844104072       -2.9978228190       -0.1112555679
 C          2.9292365554       -2.6988305041        0.0292903223
 C          3.3368839394       -1.6128607715        0.7824723602
 C          2.3785455799       -0.8518569387        1.4373866951
 N          2.7933106725        0.3245501337        2.1319686362
 S          2.5490695299        1.6773522199        1.1434968708
 O          3.0687347941        2.8057710852        1.8883126062
 O          1.1618944341        1.7948396218        0.7433761620
 C          3.5966086690        1.3162476262       -0.2439952596
 C          4.9375942370        1.6344744724       -0.1456721469
 C          5.7814839504        1.3078595786       -1.1943754153
 C          5.2720446564        0.6652111265       -2.3131801716
 C          3.9240342644        0.3516723124       -2.3933754585
 C          3.0710398608        0.6771936878       -1.3494871942
 H          2.0184064225        0.4374135863       -1.3833040127
 H          3.5236382817       -0.1515486311       -3.2587736594
 H          5.9288919138        0.4058715908       -3.1285075907
 H          6.8302169156        1.5505626987       -1.1353079642
 H          5.2828276929        2.1336695699        0.7447449363
 H          2.2699776917        0.4734421128        2.9857929962
 H          4.3767331869       -1.3427823925        0.8672851484
 H          3.6660976849       -3.3036028640       -0.4758431765
 H          1.2815074895       -3.8252423778       -0.7318645359
 C         -0.8657551332       -2.4222324903        0.3420324709
 H         -1.2933630098       -2.7768335376        1.2918668214
 C         -1.2198008599       -3.4054739311       -0.7537304675
 C         -1.2832697934       -4.8742540017       -0.4612944136
 C         -2.5451256677       -4.1023575505       -0.6996638799
 H         -3.0828554008       -4.2599167722       -1.6225118542
 H         -3.1832004589       -3.8862400968        0.1449399968
 H         -0.9573098883       -5.5661992282       -1.2229343705
 H         -1.0685043749       -5.1927572765        0.5474559661
 H         -0.8601623642       -3.0885189229       -1.7263638342
 O         -2.9285669291       -1.2725579840        1.9536032427
