  62
        -98.93617389
 C         -1.3896494967       -1.6983374822       -0.1807404914
 C         -1.3297427996       -0.2828125077       -0.2033064957
 C         -2.6219983912        0.4141621453       -0.3451022089
 C         -3.7557395974       -0.3033516341       -0.4271871026
 C         -5.1457379065        0.2621851150       -0.5019618638
 C         -5.5987251369        0.7357038352        0.8939179648
 C         -5.8079852629        2.2457643753        1.0103449118
 H         -6.7484449913        2.5119584300        0.5230557160
 H         -5.9100326556        2.4804656713        2.0720926724
 C         -4.7040526899        3.1210506860        0.4092794948
 H         -4.8307976073        3.1783060909       -0.6728096565
 H         -4.8564344023        4.1316371763        0.7941925334
 C         -3.2637888024        2.6885608778        0.7137708299
 H         -2.6707516511        3.5873947499        0.8927127437
 H         -3.2251090042        2.0963558537        1.6281619731
 C         -2.5721883437        1.9149202425       -0.4238684018
 H         -2.9746952089        2.2436595304       -1.3859974496
 H         -1.5048320816        2.1547248697       -0.4098998092
 H         -4.8530765424        0.4126689199        1.6234996024
 H         -6.5332195531        0.2396635617        1.1608958738
 H         -5.1703092960        1.0854685995       -1.2124330498
 H         -5.8000024328       -0.5311760873       -0.8642221326
 O         -3.7742576892       -1.6614157511       -0.3690656055
 C         -2.6028329361       -2.3882742810       -0.2347013421
 O         -2.7720303632       -3.6224517070       -0.1690541358
 H          2.3415309844       -1.3507750763       -0.3460453582
 C          1.9984104520       -1.3740166417        0.6739037896
 C          0.7776053828       -1.9451135096        0.9948318979
 C          0.3682385836       -1.9457055071        2.3256419665
 C          1.1582291663       -1.3800314830        3.3075965542
 C          2.3689530001       -0.7949366228        2.9815124766
 C          2.7869521932       -0.7918129857        1.6560529522
 N          4.0162546052       -0.2198908988        1.3025918145
 S          4.2664059087        0.4878443339       -0.1859705299
 O          4.3653369969       -0.5252109336       -1.2078441431
 O          5.4584004969        1.2886649723        0.0113601017
 C          2.8926477530        1.5754220880       -0.5141701086
 C          2.5261020956        2.4911334994        0.4504744316
 C          1.5068208571        3.3850695441        0.1711895788
 C          0.8784621963        3.3527377485       -1.0634564443
 C          1.2562232216        2.4248328319       -2.0196285866
 C          2.2728570631        1.5262298013       -1.7439772909
 H          2.5913960158        0.7835723230       -2.4580369978
 H          0.7567958884        2.3913947279       -2.9753066623
 H          0.0855919840        4.0519747401       -1.2808544708
 H          1.2015851469        4.1011030178        0.9177510312
 H          3.0356859281        2.4992373207        1.4005906644
 H          4.4891987947        0.2780407585        2.0416208471
 H          2.9850345130       -0.3443262307        3.7447429100
 H          0.8265776267       -1.3863754307        4.3351159364
 H         -0.5863407938       -2.3884639329        2.5774385646
 C         -0.1350577708       -2.5449731480       -0.0450027352
 H         -0.4850598241       -3.5208028092        0.3305856743
 C          0.5719197564       -2.8145170622       -1.3649944060
 C         -0.2016939459       -2.9744101728       -2.6384871739
 C          0.6817382797       -1.7806510629       -2.4431805195
 H          1.6059041329       -1.7266486709       -3.0010452049
 H          0.2213311734       -0.8215999082       -2.2648066175
 H          0.1084934403       -3.7395465101       -3.3341953914
 H         -1.2718608576       -2.8330862937       -2.5939356005
 H          1.4268022414       -3.4725372822       -1.2373998461
 O         -0.2655677867        0.3789974870       -0.1135377523
