  62
        -98.94025939
 C         -1.7931121914       -0.6960666936        0.8834738375
 C         -2.0627653003       -0.2974237502       -0.4491237513
 C         -3.4673016973       -0.4063799948       -0.8766113061
 C         -4.3899967131       -0.8728681025       -0.0168723141
 C         -5.8575278712       -0.9883515294       -0.3087893541
 C         -6.6080122735        0.2823521553        0.1134699578
 C         -5.9637151332        1.5750961981       -0.3874705946
 H         -6.5959526097        2.4022128863       -0.0570952216
 H         -4.9923114498        1.7008874377        0.0964851440
 C         -5.7828682729        1.6465544486       -1.9101829870
 H         -6.4296784590        0.9140939904       -2.3945384768
 H         -6.0982909390        2.6342546070       -2.2531550606
 C         -4.3435206249        1.4478346595       -2.3896035682
 H         -3.6768624630        2.1149887600       -1.8369481714
 H         -4.2943303674        1.7363421223       -3.4429409733
 C         -3.7932804199        0.0201476198       -2.2802121218
 H         -4.4894391017       -0.6801057848       -2.7461613452
 H         -2.8488083097       -0.0137779972       -2.8309142168
 H         -6.6421080351        0.3177953299        1.2049189462
 H         -7.6330121058        0.2173029103       -0.2560947282
 H         -6.2543520585       -1.8366544055        0.2515624963
 H         -5.9983701196       -1.1700247570       -1.3723950546
 O         -4.0928769123       -1.2485337842        1.2537605507
 C         -2.8007359228       -1.1432656844        1.7417522590
 O         -2.6780987505       -1.4701018017        2.9392431531
 O         -1.1902279546        0.1282914113       -1.2482209994
 C         -0.3978585329       -0.5970310447        1.4753497594
 C          0.2355165119        0.7212983579        1.1025301678
 C         -0.4543780417        1.8990507563        1.3824372901
 C          0.0820271907        3.1283069024        1.0562706630
 C          1.3350587028        3.2142014243        0.4734858263
 C          2.0385137646        2.0482846931        0.2057720233
 C          1.4841473460        0.8126289374        0.5105125374
 H          2.0376509601       -0.0771085086        0.2643229380
 N          3.3152349068        2.0870050770       -0.3782811580
 S          4.5188803356        1.1266692870        0.2807985285
 O          4.3322392519        0.9475267863        1.7023346752
 O          5.7569206672        1.7600247837       -0.1221417426
 C          4.3798308746       -0.4374490051       -0.5572749803
 C          4.2894402617       -0.4467203692       -1.9349969188
 C          4.2221970869       -1.6648181524       -2.5920082885
 C          4.2521209754       -2.8458814957       -1.8657404126
 C          4.3459608163       -2.8195425390       -0.4825036059
 C          4.4115294518       -1.6041833116        0.1806109222
 H          4.4767735897       -1.5362574107        1.2550724424
 H          4.3661778192       -3.7387772777        0.0813465066
 H          4.1988475396       -3.7928261839       -2.3796177872
 H          4.1461994408       -1.6906496476       -3.6670647936
 H          4.2700574417        0.4903934445       -2.4657498216
 H          3.6564756472        3.0145881472       -0.5855057646
 H          1.7606401041        4.1750072758        0.2254104128
 H         -0.4731500526        4.0304824266        1.2665310691
 H         -1.4286916275        1.8342156263        1.8491963632
 H         -0.5525931310       -0.5905598896        2.5678676889
 C          0.4921685473       -1.7938393644        1.1717791601
 C         -0.0919270987       -3.1410842559        0.8716258506
 C          0.6049270139       -2.3699695421       -0.2067505737
 H          1.5733315602       -2.7128785299       -0.5406789303
 H          0.0104661351       -1.9150396319       -0.9826199072
 H          0.3965108065       -4.0114448358        1.2831843761
 H         -1.1685121990       -3.2236815398        0.8321966014
 H          1.3957830145       -1.7878126566        1.7747690483
