  62
        -98.94341118
 C         -1.9714202012       -0.8615903341        0.0369434804
 C         -2.2408889842        0.1016985776        1.0361636385
 C         -2.4365709240        1.4788792554        0.5677519720
 C         -2.3112236678        1.7498023075       -0.7444605885
 C         -2.5126411551        3.1025146622       -1.3629228618
 C         -3.9694277278        3.3052575972       -1.8025836488
 C         -4.9933675883        2.9495788972       -0.7247915388
 H         -5.9836711380        3.1577549800       -1.1351941535
 H         -4.9442632443        1.8760996725       -0.5287773090
 C         -4.8156820860        3.7131670644        0.5948907451
 H         -4.1938186396        4.5941138460        0.4324240534
 H         -5.7935492287        4.0627982838        0.9322632186
 C         -4.2239453602        2.8809121163        1.7339647816
 H         -4.7875570656        1.9505482168        1.8396253522
 H         -4.3423125274        3.4432000669        2.6640108635
 C         -2.7366718745        2.5284435661        1.6009180440
 H         -2.1566190516        3.4337537965        1.4078231662
 H         -2.4048864464        2.1094916437        2.5559548810
 H         -4.0976907261        4.3475036071       -2.1000837144
 H         -4.1571878695        2.6757112931       -2.6752277914
 H         -2.2265286199        3.8681604933       -0.6441875466
 H         -1.8610573262        3.1778100347       -2.2351684267
 O         -2.0314615114        0.8020308737       -1.6744439793
 C         -1.8455665888       -0.5222411161       -1.3101781195
 O         -1.5860153680       -1.2853503235       -2.2606005691
 O         -2.3121289631       -0.1790747073        2.2655565963
 C         -1.7148410061       -2.2978938207        0.4485049443
 C         -0.3194834292       -2.7240095213        0.0570490185
 C         -0.0052260010       -4.0271538965       -0.3080704179
 C          1.2961807466       -4.3673969350       -0.6358212971
 C          2.3049269586       -3.4229495008       -0.6152361355
 C          1.9994048066       -2.1131559555       -0.2573254884
 C          0.7018966532       -1.7835804139        0.0949074278
 H          0.4812364306       -0.7681943363        0.3910300094
 N          2.9911007056       -1.1197333585       -0.2891824295
 S          2.7522031884        0.3852212731        0.4161531982
 O          2.4809015996        0.2500273930        1.8317330064
 O          1.7832671795        1.1213641763       -0.3576450558
 C          4.3738716989        1.0859615757        0.1749439710
 C          4.6910467018        1.6032142349       -1.0669357902
 C          5.9580542501        2.1256702592       -1.2719619006
 C          6.8824459239        2.1218666157       -0.2376754685
 C          6.5493823616        1.6016025899        1.0037790411
 C          5.2838938575        1.0766661155        1.2149813717
 H          4.9761441923        0.6704223188        2.1650211630
 H          7.2685988321        1.6031309528        1.8068046270
 H          7.8674969537        2.5299044007       -0.3998950634
 H          6.2187907123        2.5336560951       -2.2351812859
 H          3.9359190835        1.5925016151       -1.8358913244
 H          3.9299288087       -1.4693201642       -0.1626889369
 H          3.3159573200       -3.6874819865       -0.8832217303
 H          1.5269340484       -5.3841676270       -0.9152916394
 H         -0.7802336630       -4.7756147526       -0.3376202717
 H         -1.7743943104       -2.3020074381        1.5484907836
 C         -2.7915177208       -3.2121450766       -0.1014321142
 C         -3.2500252030       -4.4072254446        0.6783757695
 C         -4.1410773663       -3.2097651808        0.5501577386
 H         -5.0172621610       -3.2786463050       -0.0767801389
 H         -4.2701907945       -2.5722030619        1.4129397975
 H         -3.5184481302       -5.3024723243        0.1379817145
 H         -2.7852916490       -4.5888927278        1.6357991802
 H         -2.7570214813       -3.2849742820       -1.1826888252
