  62
        -98.94105834
 C          1.5622965413        1.6680377490        0.4015578834
 C          2.0570194630        1.1181411453       -0.8066118355
 C          3.0621200963        0.0535281146       -0.6600919557
 C          3.4221678924       -0.3745892144        0.5625764798
 C          4.4541100033       -1.4262912495        0.8704695979
 C          3.9451002681       -2.8717472958        0.7808269566
 C          3.6853516489       -3.3858185902       -0.6357110894
 H          4.5679711245       -3.2135131806       -1.2524630170
 H          3.5433807623       -4.4659183218       -0.5650580441
 C          2.4526076536       -2.7698046605       -1.3113934835
 H          1.8545587987       -3.5577930661       -1.7755025189
 H          1.8242911155       -2.2996791587       -0.5526260553
 C          2.7720528896       -1.7409233691       -2.3954058341
 H          3.2956345086       -2.2284087034       -3.2208984761
 H          1.8293701047       -1.3478729678       -2.7860972029
 C          3.6195648126       -0.5570968213       -1.9111968510
 H          4.6491362690       -0.8763796745       -1.7499388636
 H          3.6091235733        0.2106153369       -2.6890465591
 H          3.0317064117       -2.9637741776        1.3727826891
 H          4.7024389129       -3.5101063819        1.2414104669
 H          5.3084756377       -1.3017544699        0.2040529539
 H          4.7846931346       -1.2423249220        1.8950695557
 O          2.8865583571        0.1443871191        1.6992443298
 C          1.9603519183        1.1738777857        1.6481246670
 O          1.5721562596        1.5642102215        2.7653302552
 H         -0.4705444202        1.1774162881       -1.4220822559
 C         -1.1964493299        1.4028445044       -0.6543031640
 C         -0.8452166552        2.2613918845        0.3788074859
 C         -1.7892437928        2.5451318971        1.3575464043
 C         -3.0534095938        1.9822098433        1.3020636703
 C         -3.3947057402        1.1153438972        0.2796226115
 C         -2.4547632714        0.8243210033       -0.7008636835
 N         -2.7718702458       -0.1142989109       -1.7049462061
 S         -3.2331403295       -1.6171162006       -1.1166112482
 O         -2.7601804280       -2.5821078981       -2.0837256677
 O         -4.6547257562       -1.6159350629       -0.8776465671
 C         -2.3696714505       -1.7879726960        0.4382920247
 C         -3.0871521500       -1.9520957779        1.6050944330
 C         -2.4042806159       -2.0192134850        2.8090984121
 C         -1.0229648512       -1.9089118282        2.8263892358
 C         -0.3162750334       -1.7462296313        1.6449875508
 C         -0.9921693177       -1.6873141921        0.4379500462
 H         -0.4651720459       -1.5603133621       -0.4953051545
 H          0.7579186387       -1.6443758910        1.6664283030
 H         -0.4881639518       -1.9410807879        3.7624472393
 H         -2.9497796214       -2.1464917494        3.7301214952
 H         -4.1614302554       -2.0170690420        1.5471437214
 H         -2.0356171127       -0.2190075068       -2.3892328465
 H         -4.3648445951        0.6474635812        0.2301572975
 H         -3.7764180396        2.2109790251        2.0696426556
 H         -1.5203302473        3.1953315070        2.1767473836
 C          0.5561432268        2.8092485706        0.4527282642
 H          0.6834389740        3.2587479820        1.4495979287
 C          0.8385258614        3.8968017545       -0.5753520955
 C         -0.0692753405        4.2143098075       -1.7222069650
 C          0.0253306725        5.1575219205       -0.5632615391
 H          0.5295908840        6.1021349479       -0.6993541567
 H         -0.8142717503        5.1975945392        0.1144830447
 H          0.3896602411        4.4910946102       -2.6592855409
 H         -0.9749311387        3.6398562299       -1.8376882199
 H          1.9013004438        4.0085408047       -0.7642913043
 O          1.7003359551        1.4805552276       -1.9579969865
