  62
        -98.93759954
 C         -1.1400194771       -1.5863897961        0.1698444299
 C         -2.2366136560       -1.1676869088        0.9683925869
 C         -3.2215705176       -0.3028423950        0.3110903197
 C         -3.0072729312        0.1083304750       -0.9518088870
 C         -3.9600337809        0.9197407181       -1.7900364774
 C         -3.9375922514        2.4346769245       -1.5428532065
 C         -4.5165822864        2.8938910627       -0.2043984824
 H         -4.6192841251        3.9796163958       -0.2566975679
 H         -5.5183434801        2.4808000028       -0.0824845022
 C         -3.6555555713        2.5331442825        1.0143406285
 H         -2.6530749539        2.2534150975        0.6856392716
 H         -3.5528239882        3.4059729147        1.6624019856
 C         -4.2197608704        1.3972916536        1.8657069585
 H         -5.1704785858        1.7023143022        2.3086443112
 H         -3.5188055334        1.1934161431        2.6788976340
 C         -4.4396481693        0.0930979302        1.0901585005
 H         -4.6448847127       -0.7036346743        1.8096591767
 H         -5.2979164758        0.1916612252        0.4250233043
 H         -2.9116579769        2.7944063605       -1.6360878290
 H         -4.5217558120        2.8962687312       -2.3426573600
 H         -3.6832961665        0.7398893619       -2.8315936197
 H         -4.9736915200        0.5463205563       -1.6351916973
 O         -1.8841399917       -0.2237492026       -1.6442256967
 C         -0.9335785156       -1.0945180810       -1.1176649966
 O          0.0193264081       -1.3262013220       -1.8856132728
 H          1.2135167984       -0.4173917506        1.3397861041
 C          1.8243696976       -1.1753101570        0.8684221253
 C          1.2427967144       -2.3713137957        0.4554831463
 C          2.0499521553       -3.3139152890       -0.1694380637
 C          3.4022566834       -3.0833936990       -0.3504421281
 C          3.9788482780       -1.9090579257        0.0920841140
 C          3.1791370457       -0.9473123740        0.6946863825
 N          3.7379194172        0.2875022734        1.1337121511
 S          3.8125252611        1.4679866259       -0.0614746935
 O          4.0256409920        0.8797872255       -1.3655085142
 O          4.8291581409        2.3980645792        0.3841529663
 C          2.2254436722        2.2609662718       -0.0107432747
 C          1.2154688956        1.7897605607       -0.8242236470
 C         -0.0010593873        2.4526697788       -0.8250745583
 C         -0.1895833771        3.5616630679       -0.0148636487
 C          0.8307715125        4.0099308226        0.8104844113
 C          2.0521379675        3.3567326185        0.8123403092
 H          2.8806401645        3.6823125488        1.4196505779
 H          0.6782012712        4.8691950564        1.4433682292
 H         -1.1351246742        4.0813483719       -0.0287234016
 H         -0.7888650567        2.0884897769       -1.4657854014
 H          1.3862576826        0.9217857010       -1.4430105551
 H          4.6705228897        0.1768763627        1.5103844346
 H          5.0339775644       -1.7205300424       -0.0414453626
 H          4.0116966443       -3.8284137894       -0.8393752765
 H          1.6200617366       -4.2334072387       -0.5301736343
 C         -0.2111263805       -2.6228954539        0.7689897236
 H         -0.3351481796       -2.5025750429        1.8587490560
 C         -0.6392857945       -4.0502507483        0.4442635971
 C         -2.0627616811       -4.3940437514        0.1262721116
 C         -1.0190312642       -4.4648580071       -0.9453056445
 H         -0.7099065518       -5.4377990178       -1.2984525377
 H         -1.0141529894       -3.7021657580       -1.7093470034
 H         -2.7842413096       -3.5914116288        0.0880176526
 H         -2.4612742197       -5.3176948148        0.5184203097
 H         -0.0992229667       -4.7795086300        1.0401033288
 O         -2.3966314394       -1.5253966826        2.1645438520
