  62
        -98.93678170
 C         -1.4154308638       -1.2739186183       -0.0141204514
 C         -2.6671120252       -1.4151060598        0.6373578084
 C         -3.4530115770       -0.1872864365        0.8468578842
 C         -2.9262171288        0.9920536931        0.4758673085
 C         -3.5615412429        2.3509641817        0.5780396628
 C         -4.2706099985        2.7192701767       -0.7358931149
 C         -5.7141052667        2.2295633872       -0.8459487615
 H         -6.3437890027        2.8126895420       -0.1705783001
 H         -6.0508117304        2.4344054264       -1.8648937790
 C         -5.9263268444        0.7426630120       -0.5485000099
 H         -5.1364391702        0.1561157716       -1.0212782560
 H         -6.8698935759        0.4410772908       -1.0076814127
 C         -5.9837020524        0.4286022220        0.9541800172
 H         -6.0869021220        1.3611406306        1.5088271198
 H         -6.8806075936       -0.1571810206        1.1663217835
 C         -4.7931246610       -0.3707566613        1.5053127731
 H         -4.6892691608       -0.1631747009        2.5756828280
 H         -5.0018197022       -1.4417051856        1.4173708699
 H         -3.6799418006        2.3129540265       -1.5608733867
 H         -4.2747346475        3.8060447396       -0.8408464460
 H         -4.2460617430        2.3944228525        1.4199138741
 H         -2.7506916483        3.0619844780        0.7471942866
 O         -1.7071193937        1.0915299340       -0.1154258192
 C         -0.9266729030       -0.0208498119       -0.3943856334
 O          0.1397892585        0.2550034104       -0.9705694781
 H          1.7091450311       -1.7235068058       -1.4334391144
 C          1.8351821912       -1.8218939692       -0.3668334561
 C          0.7799312214       -2.2739665435        0.4100959668
 C          0.9597590725       -2.3818981064        1.7852189144
 C          2.1669569700       -2.0420123786        2.3679465236
 C          3.2072542963       -1.5577982169        1.5940400329
 C          3.0294792775       -1.4319440212        0.2224750099
 N          4.0645700321       -0.8907182390       -0.5686898907
 S          4.5988127739        0.6483194568       -0.1738488045
 O          5.3882391973        1.0741146314       -1.3083749803
 O          5.2936634953        0.5867702761        1.0890538587
 C          3.1507838034        1.6769806806       -0.0172342387
 C          2.7132091100        2.3753912381       -1.1233689304
 C          1.5740185554        3.1544352739       -1.0171782800
 C          0.8882272197        3.2116616011        0.1848345571
 C          1.3375861760        2.5006287017        1.2854094998
 C          2.4811359889        1.7255319290        1.1880479140
 H          2.8602919059        1.1622141073        2.0252200357
 H          0.7947032610        2.5377797898        2.2171400401
 H         -0.0084684307        3.8067920955        0.2610673998
 H          1.2155824429        3.7023580840       -1.8740287940
 H          3.2741002936        2.3018366550       -2.0415013104
 H          3.8459032795       -0.9116918363       -1.5553381710
 H          4.1437766675       -1.2539985945        2.0334875493
 H          2.2964482116       -2.1408382832        3.4352645051
 H          0.1355222435       -2.7239860331        2.3957963210
 C         -0.5779849415       -2.5314779707       -0.1873850373
 H         -1.0909098932       -3.2878048657        0.4274539186
 C         -0.5161284444       -3.0909383533       -1.5999837140
 C         -1.7532117305       -3.1391983828       -2.4452032282
 C         -0.6148384688       -2.2465405468       -2.8333469051
 H         -0.0155489402       -2.5268146222       -3.6878362245
 H         -0.7288710478       -1.1810879737       -2.7140022686
 H         -1.9445399252       -4.0222568800       -3.0359831457
 H         -2.6442486100       -2.6814383717       -2.0406127956
 H          0.1422252963       -3.9529687001       -1.6574772865
 O         -3.1152990617       -2.5269314087        1.0275944006
