  62
        -98.93828008
 C          1.7855571106        0.0257613063        0.1460144332
 C          2.9003063497        0.9010937445        0.1468910826
 C          4.1454205661        0.3502570537       -0.4177532343
 C          4.1544093197       -0.8940910414       -0.9261701684
 C          5.3611633050       -1.5845860751       -1.4913197329
 C          6.1021977557       -2.3842388300       -0.4107056579
 C          6.3732608835       -1.5908770072        0.8675650657
 H          5.4217230219       -1.3589833914        1.3514923483
 H          6.9271407147       -2.2444954481        1.5449724423
 C          7.1614201646       -0.2911797868        0.6531435323
 H          7.9379580001       -0.2223697044        1.4179813755
 H          7.6625764214       -0.3170648461       -0.3151317375
 C          6.3220214648        0.9838095621        0.7547479995
 H          5.7458601320        0.9701507891        1.6834372939
 H          7.0043965923        1.8364774852        0.8065717335
 C          5.3556491838        1.2417453021       -0.4081506796
 H          5.8937221004        1.1725806264       -1.3557594586
 H          4.9747363936        2.2618747391       -0.3023651526
 H          5.4983456974       -3.2565932838       -0.1504029165
 H          7.0465292710       -2.7372705262       -0.8290762589
 H          5.0296375147       -2.2689612514       -2.2740428499
 H          6.0261404855       -0.8426075928       -1.9290395679
 O          3.0561994073       -1.6922064039       -0.9412265540
 C          1.8589774576       -1.2595489336       -0.3989732290
 O          0.9395369620       -2.1009139325       -0.4556287577
 O          2.8812611469        2.0796464651        0.5835570236
 C          0.4266853997        0.4028278882        0.7112886275
 C         -0.4400671394        1.0840082225       -0.3160321059
 C          0.0496486043        2.0968543384       -1.1339001059
 C         -0.7804463507        2.7181537400       -2.0491301000
 C         -2.1142261233        2.3624794748       -2.1480672934
 C         -2.6136902940        1.3531269433       -1.3340631985
 C         -1.7693676399        0.7088943682       -0.4408860983
 H         -2.1564320665       -0.0920157702        0.1697870092
 N         -3.9586449458        0.9652484505       -1.4022187428
 S         -4.7801503499        0.5975277918        0.0109984584
 O         -6.1736160985        0.8179909698       -0.3103301076
 O         -4.2579566801        1.3412674562        1.1326829277
 C         -4.5083743527       -1.1460468946        0.2387001258
 C         -4.8216647059       -1.9973186351       -0.8023087591
 C         -4.6269008726       -3.3585601385       -0.6347398407
 C         -4.1270721379       -3.8430027061        0.5646977496
 C         -3.8212284050       -2.9756264570        1.6017446048
 C         -4.0137664912       -1.6126903060        1.4401631657
 H         -3.7823818235       -0.9033459731        2.2196817362
 H         -3.4304492141       -3.3536611824        2.5329038312
 H         -3.9731977799       -4.9028576722        0.6926371055
 H         -4.8622672233       -4.0375806547       -1.4383808552
 H         -5.2103353433       -1.5836055756       -1.7178194034
 H         -4.5257068147        1.5007989036       -2.0431963175
 H         -2.7643837960        2.8615226371       -2.8506446113
 H         -0.3885725297        3.5005784151       -2.6816279832
 H          1.0810356882        2.3998010816       -1.0375475546
 H         -0.0571337515       -0.5560979125        0.9581399081
 C          0.5138499485        1.2016332506        2.0053387835
 C          0.2218594005        2.6654390857        2.0988690440
 C         -0.7354369186        1.6760930568        2.6885974523
 H         -0.7957494755        1.5943044645        3.7637636386
 H         -1.6806823518        1.5322515967        2.1841034156
 H          0.8375986269        3.2576739384        2.7584574811
 H         -0.0721592302        3.1848702415        1.2005154042
 H          1.3050321828        0.8315564102        2.6503933787
