  62
        -98.94165196
 C         -1.1807786602       -1.6186220992       -0.1819493708
 C         -1.3537707898       -0.2305282890       -0.4104324500
 C         -2.5286862797        0.3756573309        0.2357841403
 C         -3.3216651400       -0.3632992495        1.0305422498
 C         -4.5331973799        0.1252489003        1.7773423299
 C         -5.8168132499        0.1471809212        0.9360182598
 C         -5.8830146895        1.2491616318       -0.1222949795
 H         -5.6693833093        2.2115367415        0.3434704311
 H         -6.9126948595        1.2836236823       -0.4839657495
 C         -4.9466183095        1.0348777524       -1.3197503795
 H         -5.4923448793        1.2249490931       -2.2468871895
 H         -4.6247810597       -0.0088630377       -1.3475470401
 C         -3.7106874292        1.9349101221       -1.3268231988
 H         -4.0190320790        2.9770776722       -1.4335997682
 H         -3.1014739992        1.6723454425       -2.1953664890
 C         -2.8311740494        1.8099228811       -0.0759410688
 H         -3.3150487794        2.2905248207        0.7735958714
 H         -1.8805069093        2.3097139410       -0.2719739184
 H         -6.6548950099        0.2827626709        1.6236362399
 H         -5.9363239500       -0.8270003385        0.4560266592
 H         -4.3416144598        1.1213454901        2.1768265306
 H         -4.6813228902       -0.5626113101        2.6125618495
 O         -3.0907847303       -1.6827830297        1.2671243189
 C         -2.0418751004       -2.3410261295        0.6493940786
 O         -1.9790955207       -3.5590434897        0.9149273079
 O         -0.5890172196        0.4806503413       -1.1089967395
 C         -0.0573607403       -2.4288873090       -0.8095472112
 C          1.1881692197       -2.3513376198        0.0338166889
 C          1.7732632094       -3.5092387803        0.5339369983
 C          2.9028499493       -3.4414308910        1.3293407284
 C          3.4819352795       -2.2195750514        1.6196967492
 C          2.9051314299       -1.0560155809        1.1240594099
 C          1.7562938999       -1.1242224802        0.3499076297
 H          1.3061858601       -0.2153342298       -0.0183088697
 N          3.4650668501        0.2019337088        1.3980362607
 S          3.6377975005        1.2838585995        0.1258407514
 O          3.7939390004        0.5900154003       -1.1307207790
 O          4.7516119906        2.1243401390        0.5210036221
 C          2.1703766907        2.2854387999        0.1378309819
 C          1.6199325409        2.6898544607       -1.0602839979
 C          0.5416270711        3.5590164510       -1.0406691274
 C          0.0341930411        4.0017244503        0.1705898828
 C          0.5919622309        3.5753500895        1.3666236526
 C          1.6753600007        2.7129196692        1.3535244021
 H          2.1381396505        2.3636388585        2.2618604520
 H          0.1854844409        3.9125180790        2.3068484228
 H         -0.8045952788        4.6805583305        0.1832418931
 H          0.0964674412        3.8783107617       -1.9693412573
 H          2.0340454909        2.3087972512       -1.9797435181
 H          4.3020605201        0.1747105882        1.9632031008
 H          4.3720964995       -2.1630905719        2.2281825193
 H          3.3427871491       -4.3476348914        1.7174239879
 H          1.3252302492       -4.4658467201        0.3073667476
 H         -0.4088632605       -3.4728017590       -0.7781834219
 C          0.1751925899       -2.0865628782       -2.2748758410
 C          1.3741827101       -1.3659586981       -2.8058347804
 C          1.2144012698       -2.8335156979       -3.0585414314
 H          0.9745263699       -3.1689277372       -4.0564020716
 H          1.8583306896       -3.5049273284       -2.5098029917
 H          1.2124497204       -0.6819475576       -3.6259498900
 H          2.1444891002       -1.0360410987       -2.1262460102
 H         -0.7608593800       -1.8849544576       -2.7876036910
