  62
        -98.94022162
 C         -1.8153422490       -0.7873179312       -0.8467413093
 C         -2.0713365591       -0.3527545901        0.4773412303
 C         -3.4912079291       -0.2602813200        0.8556403502
 C         -4.4390434590       -0.6282412809       -0.0243629995
 C         -5.9176462191       -0.5345081809        0.2141327303
 C         -6.4732482392        0.8150274186       -0.2620187708
 C         -5.6784925094        2.0213754392        0.2380302882
 H         -4.6821112594        2.0025112889       -0.2093589317
 H         -6.1801323796        2.9175090588       -0.1335805825
 C         -5.5455056095        2.1053967504        1.7650504382
 H         -6.3000500794        1.4756447607        2.2378047986
 H         -5.7401817997        3.1336542407        2.0769778773
 C         -4.1631739495        1.7307218211        2.3029796285
 H         -3.3964656095        2.2939020807        1.7651002181
 H         -4.1140990096        2.0318990319        3.3527314683
 C         -3.8029211893        0.2410478011        2.2377259098
 H         -2.8897341093        0.0926751817        2.8216542399
 H         -4.6005593892       -0.3504807087        2.6917321502
 H         -7.5101077093        0.8970403588        0.0690601491
 H         -6.4638663192        0.8273136677       -1.3544899108
 H         -6.4068973389       -1.3357593014       -0.3424114890
 H         -6.1184280191       -0.6680674301        1.2753730704
 O         -4.1521680789       -1.0955035919       -1.2666921291
 C         -2.8420646889       -1.1844332020       -1.7071725090
 O         -2.7211264188       -1.6365621230       -2.8635005286
 H          2.0059484909       -0.1017270601       -0.2766892397
 C          1.6775340110       -1.0630893399        0.0792457211
 C          0.4808990511       -1.6034105504       -0.3614157185
 C          0.0841627613       -2.8400926501        0.1430492325
 C          0.8543873213       -3.5032367292        1.0769350031
 C          2.0546246812       -2.9632754487        1.5069240527
 C          2.4664608811       -1.7386463590        1.0002791817
 N          3.6770897110       -1.1543488885        1.4068453612
 S          4.6831489409       -0.5058484893        0.2361220008
 O          4.5698978411       -1.2216882704       -1.0139150287
 O          5.9969229509       -0.4958364486        0.8445068908
 C          4.1365538107        1.1754347204        0.0300639493
 C          3.9106189305        1.9442472513        1.1543677687
 C          3.5225136503        3.2646743011        0.9938224976
 C          3.3748010103        3.7932557101       -0.2797197028
 C          3.6088691905        3.0087222992       -1.3988881922
 C          3.9943486407        1.6863060994       -1.2449200711
 H          4.1777126608        1.0374809987       -2.0867361405
 H          3.4908769005        3.4201346983       -2.3888961025
 H          3.0720661002        4.8214271799       -0.4017489437
 H          3.3354724102        3.8774525518        1.8608287471
 H          4.0356923206        1.5003507721        2.1277549691
 H          4.1984583710       -1.6902094179        2.0856146717
 H          2.6627543413       -3.4839731280        2.2313687031
 H          0.5251606914       -4.4545782789        1.4677575438
 H         -0.8486073187       -3.2682610405       -0.2000429572
 C         -0.3992601689       -0.9202630314       -1.3794535191
 H         -0.4847232488       -1.5969434621       -2.2466697086
 C          0.1903967309        0.3820684283       -1.9019986302
 C         -0.6907118193        1.4851944377       -2.4054461411
 C          0.0842695907        1.6658054089       -1.1366522512
 H          0.9309980506        2.3364899390       -1.1419663617
 H         -0.4458175294        1.6395804496       -0.1983171012
 H         -1.7596433892        1.3409639176       -2.3405678610
 H         -0.3775482893        2.0279190570       -3.2845807216
 H          1.1119127409        0.2159613279       -2.4527172800
 O         -1.1751489192       -0.0550959393        1.3076367401
