  62
        -98.94267867
 C          1.2356898933        1.5652929334        0.5590531547
 C          2.1843026325        1.2554947690       -0.4427640310
 C          3.1715647104        0.2130327804       -0.1078494013
 C          3.1074319335       -0.3883588234        1.0926756719
 C          3.9342525471       -1.5436974429        1.5840424779
 C          3.2146533886       -2.8723913168        1.2900165522
 C          3.5289294637       -3.4841247316       -0.0737088974
 H          4.5625449002       -3.8380082224       -0.0836679437
 H          2.8783713150       -4.3537171792       -0.1932732940
 C          3.3131382473       -2.5481464816       -1.2655392027
 H          2.3776144810       -2.0007050014       -1.1284241637
 H          3.1920980812       -3.1657286115       -2.1581555319
 C          4.4800680120       -1.5742704372       -1.4881886072
 H          4.7913634241       -1.6199437066       -2.5339348859
 H          5.3339013898       -1.9047623272       -0.8964362185
 C          4.1781378379       -0.1000097092       -1.1809418034
 H          5.1158376295        0.4117899367       -0.9391564313
 H          3.7790531260        0.3820065868       -2.0791177886
 H          3.4852007569       -3.5987055539        2.0595993931
 H          2.1363764871       -2.7016955309        1.3627610231
 H          4.9266773819       -1.5274098356        1.1433004860
 H          4.0256990974       -1.4273781703        2.6660013690
 O          2.1873104256       -0.0478621368        2.0360516496
 C          1.2154354610        0.9017829249        1.7843061166
 O          0.3990190422        1.0655921372        2.7155038708
 O          2.1967991462        1.8061635200       -1.5754406006
 C          0.1056279907        2.5328154865        0.2620015783
 C         -0.7641517932        1.9784149149       -0.8440578728
 C         -1.4287680159        2.7744376871       -1.7689629057
 C         -2.2237604374        2.1950883512       -2.7435004930
 C         -2.3870522349        0.8227471833       -2.8123544139
 C         -1.7286552056        0.0185276568       -1.8890893483
 C         -0.9332109918        0.6037145892       -0.9186952851
 H         -0.4090861916       -0.0339859640       -0.2254738523
 N         -1.8391518731       -1.3786673004       -1.9195100895
 S         -1.7785647025       -2.2680648156       -0.5059555159
 O         -0.4457086331       -2.2717697278        0.0419500755
 O         -2.3075441858       -3.5612761041       -0.8846754621
 C         -2.9298091609       -1.4546363410        0.5873681957
 C         -2.4925668820       -0.6895324100        1.6484758747
 C         -3.4308302694       -0.0356858170        2.4330413060
 C         -4.7811103646       -0.1577174976        2.1476832678
 C         -5.2061175422       -0.9382684462        1.0826001720
 C         -4.2739452552       -1.5897695830        0.2932367241
 H         -4.5632306892       -2.2159177324       -0.5350853180
 H         -6.2573849529       -1.0377029468        0.8657625182
 H         -5.5045655155        0.3557258756        2.7610644452
 H         -3.0882708961        0.5677667095        3.2587091324
 H         -1.4378546750       -0.6025668378        1.8591687970
 H         -2.5103770760       -1.7479827401       -2.5757025266
 H         -3.0041730115        0.3768003839       -3.5769143851
 H         -2.7279863898        2.8238117539       -3.4615174605
 H         -1.3165698689        3.8458043588       -1.7323425198
 H         -0.5060135344        2.5737768025        1.1765124225
 C          0.6345200684        3.9213255265       -0.0317433147
 C         -0.1557968805        5.1322257510        0.3616159228
 C          1.0912451911        4.7756090075        1.1115158840
 H          1.9704867150        5.3878306351        0.9790465184
 H          0.9920843975        4.3649581707        2.1061552488
 H         -0.1314956788        5.9957791143       -0.2858937313
 H         -1.1026708121        4.9750502741        0.8558832447
 H          1.2129460946        3.9596871593       -0.9471453210
