  62
        -98.93441507
 C         -2.0126787132       -0.9741092046        0.4707416203
 C         -2.7475303454        0.0173631605        1.1651107769
 C         -4.1694727130        0.1861497094        0.8116508681
 C         -4.6936398911       -0.6086999497       -0.1395792083
 C         -6.0934104875       -0.6056743198       -0.6941613144
 C         -6.3431159701        0.5599294188       -1.6643382921
 C         -5.8071322860        1.9105790183       -1.1969941253
 H         -4.7318785496        1.8306798987       -1.0262108295
 H         -5.9526115842        2.6252791556       -2.0114393557
 C         -6.4783992062        2.4813609275        0.0500391756
 H         -6.0668837963        3.4813608437        0.2099589369
 H         -7.5491049636        2.5898164577       -0.1371217606
 C         -6.2887913295        1.6797802942        1.3398087298
 H         -6.9427263421        0.8121674250        1.3632080486
 H         -6.5969930459        2.3222695630        2.1699128096
 C         -4.8495654561        1.2616238091        1.6240385582
 H         -4.7828170300        0.9288557569        2.6670580517
 H         -4.2006948994        2.1429483819        1.5627224356
 H         -7.4167805294        0.6343909506       -1.8452195238
 H         -5.8567446593        0.3198561834       -2.6129950271
 H         -6.2160368028       -1.5439569722       -1.2397476405
 H         -6.8166842180       -0.5971260912        0.1157869098
 O         -3.9503686252       -1.5504878705       -0.7838269896
 C         -2.6057832114       -1.7584438271       -0.5187799613
 O         -2.0892016334       -2.6481007012       -1.2179943782
 O         -2.2330115975        0.7427051225        2.0604455442
 C         -0.5518907884       -1.1267075370        0.8526912405
 C          0.3201922787       -0.2400060567        0.0017049671
 C          0.2313609880       -0.2604049319       -1.3866093344
 C          1.0474618882        0.5505494891       -2.1542890847
 C          1.9706351951        1.3909158074       -1.5564790121
 C          2.0706701874        1.4146840015       -0.1722125040
 C          1.2473353303        0.6025974444        0.5971346571
 H          1.3179458458        0.6381787309        1.6758563088
 N          3.0364009502        2.2435915144        0.4343171576
 S          4.6277943547        1.9352419805       -0.0039042580
 O          5.4352336671        2.4944013394        1.0558638112
 O          4.8650283558        2.4509904151       -1.3275117092
 C          4.7271778033        0.1549551966       -0.0054529318
 C          4.5609586635       -0.5374598785       -1.1879312815
 C          4.5282929518       -1.9224399608       -1.1530120075
 C          4.6611883083       -2.5873444727        0.0557305149
 C          4.8377160206       -1.8774539622        1.2337589114
 C          4.8637362924       -0.4926400598        1.2066852967
 H          4.9995942000        0.0950398139        2.1007136640
 H          4.9447824032       -2.3985271498        2.1715998198
 H          4.6237627056       -3.6645470282        0.0808731774
 H          4.3915920137       -2.4775099695       -2.0670898426
 H          4.4647671775        0.0151937310       -2.1077737316
 H          2.9568959936        2.2788599908        1.4408846795
 H          2.6191991376        2.0244643540       -2.1398105173
 H          0.9649522171        0.5273895218       -3.2304221476
 H         -0.4800750337       -0.9238693155       -1.8548593096
 H         -0.4959156976       -0.7477093889        1.8855558208
 C         -0.0745203542       -2.5727067919        0.8720541715
 C          0.9440228255       -3.1225238352       -0.0769197397
 C          1.3089460152       -2.8921524305        1.3565988859
 H          1.4463741374       -3.7449615996        2.0033703763
 H          1.9622782653       -2.0600766230        1.5732410323
 H          0.8025239501       -4.1340824022       -0.4245872449
 H          1.3622588194       -2.4616094848       -0.8195266951
 H         -0.8644032901       -3.2533362680        1.1718789006
