  62
        -98.93278369
 C         -1.8830041794       -1.6804535497       -0.1882300599
 C         -2.6237015297       -1.1061169796        0.8761745498
 C         -3.7721672297       -0.2485056397        0.5340752394
 C         -4.0708789194       -0.0705421500       -0.7657987607
 C         -5.1442062293        0.7965101399       -1.3689482412
 C         -4.7804359394        2.2894188999       -1.3403715313
 C         -4.1948329098        2.7827250501       -0.0196665012
 H         -3.2916454598        2.2125400602        0.2073547991
 H         -3.8902267398        3.8233474601       -0.1608711513
 C         -5.1454926101        2.7307231503        1.1743632385
 H         -4.6325493203        3.2040412504        2.0154998786
 H         -6.0337073901        3.3255382402        0.9498359182
 C         -5.5920992301        1.3351393003        1.6166679586
 H         -6.3700045099        0.9461611201        0.9650861585
 H         -6.0406678804        1.4372488004        2.6090918285
 C         -4.4628968701        0.3183842804        1.7508035291
 H         -4.8380669101       -0.5493734995        2.3067048491
 H         -3.6699959703        0.7407791006        2.3788558192
 H         -5.6738275094        2.8671373298       -1.5839616416
 H         -4.0372615692        2.4712893798       -2.1211852311
 H         -5.2505606490        0.4845450997       -2.4103419411
 H         -6.0929113694        0.6197534199       -0.8709747514
 O         -3.3585866191       -0.6736181001       -1.7571210605
 C         -2.2542945991       -1.4831323699       -1.5171024101
 O         -1.7537955888       -1.9474340101       -2.5572264998
 O         -2.3263615900       -1.3027116394        2.0857833799
 C         -0.6659970795       -2.4831616196        0.2448225605
 C          0.2905268403       -1.5747458894        0.9790891206
 C          0.9330441400       -2.0010714392        2.1363589909
 C          1.8068138198       -1.1663809390        2.8085932310
 C          2.0721110798        0.1030320110        2.3266777308
 C          1.4373674401        0.5380647907        1.1699042006
 C          0.5489965803       -0.2959519394        0.5069163205
 H          0.0532464105        0.0647754404       -0.3832758297
 N          1.6907483301        1.8218928107        0.6364341305
 S          2.5356599105        1.8562006405       -0.8104460593
 O          2.7442822805        3.2559816005       -1.1052449195
 O          1.8336178508        1.0797244303       -1.7981352294
 C          4.0961946305        1.0890932807       -0.4082045288
 C          4.1775452705       -0.2890447893       -0.3822506986
 C          5.3674692405       -0.8813799192        0.0108020219
 C          6.4476171403       -0.0904904290        0.3716662620
 C          6.3501565102        1.2924948010        0.3398225218
 C          5.1619305903        1.8907217008       -0.0477478286
 H          5.0403481502        2.9610888608       -0.0911362888
 H          7.1926373701        1.9051124511        0.6177371419
 H          7.3711809503       -0.5558252089        0.6776480523
 H          5.4426301306       -1.9565345692        0.0339843920
 H          3.3202144807       -0.8728434094       -0.6758036387
 H          2.1375055299        2.4483933708        1.2926414005
 H          2.7540744396        0.7592355211        2.8465636609
 H          2.2880168696       -1.5066290288        3.7125037711
 H          0.7234126400       -2.9886879191        2.5196565710
 H         -1.0296821996       -3.2231786295        0.9782603005
 C          0.0269225709       -3.2551419697       -0.8653369992
 C          1.0850559911       -2.6499047297       -1.7328010690
 C          1.4552886709       -3.6936749996       -0.7242090587
 H          1.7245213210       -4.6758823296       -1.0817866285
 H          1.9961008506       -3.3764445694        0.1548036214
 H          1.0769865214       -2.9104004899       -2.7802694290
 H          1.3589276009       -1.6195640597       -1.5602907091
 H         -0.6494467089       -3.9449269198       -1.3575179492
