  62
        -98.94486225
 C          1.9413467832        0.5551760851       -0.6045089225
 C          3.0140528508        1.3241887449       -0.0915207966
 C          4.3487342804        0.7313807624       -0.2266152066
 C          4.4894861182       -0.4642922165       -0.8274289517
 C          5.7876158699       -1.1872442692       -1.0652262442
 C          6.2715049609       -2.0125487966        0.1349930689
 C          6.8106691992       -1.1964301757        1.3104709894
 H          7.3108950747       -1.8960957578        1.9830218830
 H          7.5649872216       -0.4965669975        0.9495229915
 C          5.7352326648       -0.4365862010        2.0994665593
 H          5.8971934279       -0.5834673714        3.1696923513
 H          4.7516930581       -0.8506818522        1.8651764569
 C          5.7111500598        1.0710977913        1.8476417731
 H          6.6436008314        1.5165731262        2.2011874960
 H          4.8910886385        1.5023622887        2.4272877987
 C          5.5092416818        1.4628055045        0.3778912301
 H          5.2873335163        2.5318717808        0.3350092682
 H          6.4185999372        1.2710578933       -0.1910719151
 H          5.4494193504       -2.6458149348        0.4767527692
 H          7.0696115187       -2.6680243103       -0.2211720261
 H          5.6151470622       -1.8665740341       -1.9028312621
 H          6.5589574802       -0.4716713154       -1.3514400235
 O          3.4342711568       -1.1658953170       -1.3202973092
 C          2.1352025507       -0.6895531593       -1.2032110059
 O          1.2687064154       -1.4531032547       -1.6697641588
 O          2.8622376266        2.4505574590        0.4523069353
 C          0.5298646729        1.1045501521       -0.4843164782
 C         -0.2949370808        0.1726705029        0.3673647513
 C          0.0994472820       -0.0355201496        1.6879122488
 C         -0.5919192402       -0.9088410079        2.5031409325
 C         -1.6986204437       -1.5873889875        2.0218379203
 C         -2.1018982661       -1.3871669594        0.7076262584
 C         -1.4050771661       -0.5048258889       -0.1093616514
 H         -1.7277703882       -0.3866756322       -1.1293864939
 N         -3.2047824485       -2.0861640228        0.1931448297
 S         -4.3561990775       -1.3304919099       -0.7505491059
 O         -5.4530548417       -2.2718574472       -0.7997165874
 O         -3.7966811276       -0.9337622750       -2.0166156447
 C         -4.8360856523        0.1023143036        0.1967324162
 C         -4.2146203350        1.3132086087       -0.0312154834
 C         -4.5578176376        2.3993295387        0.7588244530
 C         -5.5085180964        2.2567531682        1.7575328684
 C         -6.1252362080        1.0333387027        1.9725956283
 C         -5.7843597470       -0.0567394830        1.1889103112
 H         -6.2472702161       -1.0221419905        1.3144179234
 H         -6.8674403914        0.9264371154        2.7471902836
 H         -5.7718178055        3.1052140135        2.3692130639
 H         -4.0803492401        3.3515251238        0.5909419947
 H         -3.4830073321        1.3880911613       -0.8184419818
 H         -3.6411835042       -2.7170891250        0.8491985874
 H         -2.2367051367       -2.2776703904        2.6536513373
 H         -0.2706096555       -1.0634195988        3.5221093007
 H          0.9669754333        0.4923302542        2.0599316847
 H          0.6376535533        2.0575528856        0.0540993989
 C         -0.0562321727        1.3839777843       -1.8508501531
 C         -1.1132579440        2.4339422996       -2.0108646917
 C          0.2718252886        2.6796433288       -2.5280393286
 H          0.4350166777        2.6760451241       -3.5953276282
 H          0.9024749401        3.3739197719       -1.9920755061
 H         -1.9053815916        2.2620666655       -2.7248854704
 H         -1.4188892293        2.9706077271       -1.1252045066
 H         -0.1155130949        0.5002797831       -2.4765133194
