  62
        -98.93871721
 C         -1.8697106919       -0.6306578628        0.8864581998
 C         -2.2197368647        0.7407746373        0.7809857822
 C         -3.6487605105        1.0454028022        0.6383377911
 C         -4.5356075048        0.0340866418        0.6359608683
 C         -6.0173616871        0.1907154865        0.4557458226
 C         -6.4119581826        0.0894765143       -1.0241712771
 C         -5.5693345316        0.9678841407       -1.9490183913
 H         -4.5406307312        0.6000001023       -1.9507921188
 H         -5.9576631631        0.8397208257       -2.9617949017
 C         -5.5727280196        2.4592016900       -1.5849731096
 H         -5.7098342730        3.0417367158       -2.4984739954
 H         -6.4176750439        2.6789383593       -0.9313588946
 C         -4.2823980068        2.9556728869       -0.9297355907
 H         -3.4241128764        2.6525322531       -1.5347848055
 H         -4.3059675064        4.0486385335       -0.9192406859
 C         -4.0433420680        2.4898920316        0.5121009561
 H         -4.9261636649        2.7026426003        1.1185432581
 H         -3.2033509441        3.0649655730        0.9123400146
 H         -6.2990175529       -0.9495493645       -1.3422956481
 H         -7.4647787404        0.3613718892       -1.1201290855
 H         -6.5170645880       -0.6049046200        1.0109930294
 H         -6.3269402409        1.1524212140        0.8603503802
 O         -4.1692969718       -1.2655033338        0.7543495952
 C         -2.8329096293       -1.6408624059        0.8622508154
 O         -2.6696825431       -2.8718596558        0.9289407921
 O         -1.3688122730        1.6702179524        0.8143749899
 C         -0.3900044581       -0.9356198404        1.0273614797
 C          0.2734162182       -1.1578540419       -0.3076654178
 C         -0.3176214138       -1.9289141599       -1.3027731756
 C          0.3308357522       -2.1318230625       -2.5076121204
 C          1.5870029903       -1.5961662070       -2.7322291941
 C          2.1881217386       -0.8276050379       -1.7429646340
 C          1.5186163069       -0.5967347715       -0.5495598362
 H          1.9787212437        0.0249106455        0.2027828373
 N          3.4621057627       -0.2723689743       -1.9264235436
 S          4.5547954952       -0.3157224565       -0.6543864164
 O          5.8542782539       -0.2567020967       -1.2878535860
 O          4.3126295128       -1.4494531923        0.2056693521
 C          4.2714371526        1.2041463560        0.2263744081
 C          4.0050930858        1.1724071947        1.5807552481
 C          3.8008901991        2.3677554306        2.2518021878
 C          3.8679003790        3.5671605953        1.5600490159
 C          4.1398290424        3.5820370215        0.2001954340
 C          4.3452593036        2.3906140674       -0.4761792508
 H          4.5621944694        2.3612216540       -1.5309211251
 H          4.1899800024        4.5176344770       -0.3331611621
 H          3.7059450102        4.4954464288        2.0848379552
 H          3.5872293529        2.3574057983        3.3086652078
 H          3.9555900733        0.2173303982        2.0804300253
 H          3.9017799567       -0.5003452538       -2.8062886574
 H          2.0985949133       -1.7715176683       -3.6665396781
 H         -0.1400589306       -2.7285550476       -3.2745215126
 H         -1.2831264469       -2.3760769034       -1.1189311441
 H          0.0441656749       -0.0163810171        1.4532077605
 C         -0.0924290797       -2.0642185701        2.0049029358
 C          0.3078839434       -3.4417752783        1.5814566207
 C          1.3143574120       -2.5385606499        2.2254055107
 H          1.6287895045       -2.7563734093        3.2353356384
 H          2.0982227646       -2.1375760887        1.5985078304
 H         -0.0884542915       -4.2742772927        2.1423161437
 H          0.4044734434       -3.6409120725        0.5257082509
 H         -0.7235879742       -2.0034732307        2.8864357753
