  62
        -98.93381077
 C          2.2963827453        1.1800509209       -0.5381914832
 C          3.2693422041        0.6409246733        0.3445503262
 C          3.7774826000       -0.6988012010        0.0283024232
 C          3.3235298105       -1.3370497795       -1.0647711789
 C          3.7637234363       -2.6848347621       -1.5711000419
 C          3.4241695873       -3.8893625550       -0.6720030972
 C          4.5472440400       -4.2948842030        0.2906088828
 H          4.5943967574       -5.3848298247        0.3342055821
 H          5.4995267579       -3.9557003963       -0.1188162721
 C          4.4047425525       -3.7974446402        1.7322058915
 H          3.6707198987       -4.4171229589        2.2524910379
 H          5.3663371939       -3.9377854333        2.2305865596
 C          3.9700667187       -2.3408829924        1.8985599066
 H          2.9003998371       -2.2498909080        1.6904901742
 H          4.1017452713       -2.0635704355        2.9464473991
 C          4.7229589721       -1.3368761804        1.0036834689
 H          5.5425352566       -1.8268051351        0.4802637865
 H          5.1341679735       -0.5302650781        1.6137407207
 H          2.5039186588       -3.6854429171       -0.1239661436
 H          3.2235981716       -4.7323261917       -1.3353391365
 H          4.8410013390       -2.6579660082       -1.7496412194
 H          3.2672595535       -2.8092274882       -2.5355915621
 O          2.3981932570       -0.7842648192       -1.8923850839
 C          1.8391522717        0.4595896453       -1.6413129090
 O          0.9724065422        0.7841450345       -2.4797092604
 O          3.7035095112        1.2634131552        1.3504552448
 C          1.7507473927        2.5543107955       -0.1830024369
 C          0.4547910735        2.4160799069        0.5805416990
 C          0.3410505037        2.8583105448        1.8929587907
 C         -0.8385137301        2.6842034601        2.5966705258
 C         -1.9246580757        2.0590429744        2.0104628472
 C         -1.8164785820        1.6087835265        0.7017851747
 C         -0.6412539346        1.8004201321       -0.0072671977
 H         -0.5636929782        1.4379534865       -1.0220616442
 N         -2.9116699982        0.9348226467        0.1012417103
 S         -3.1468546695       -0.6277805370        0.7100560554
 O         -3.3469553551       -0.5348702495        2.1335437111
 O         -2.0782350135       -1.5037863330        0.2730147157
 C         -4.6754559250       -1.0717149346       -0.0900392360
 C         -5.8587283630       -0.5917605266        0.4375521812
 C         -7.0496589484       -0.9022091499       -0.1988482311
 C         -7.0372033269       -1.6813810323       -1.3463262327
 C         -5.8413645916       -2.1553398919       -1.8639135882
 C         -4.6463114941       -1.8470937255       -1.2326361746
 H         -3.6935097154       -2.1990820494       -1.5955927222
 H         -5.8339043628       -2.7621721068       -2.7551049224
 H         -7.9651333173       -1.9226748533       -1.8402534563
 H         -7.9818313395       -0.5366697726        0.2005395253
 H         -5.8191437263        0.0033015528        1.3345945996
 H         -2.7573359625        0.8399454686       -0.8960964778
 H         -2.8383959394        1.8913671655        2.5558574967
 H         -0.9103420703        3.0321332554        3.6160201864
 H          1.1933219008        3.3213950018        2.3687141625
 H          2.4938113343        2.9906417496        0.4980246470
 C          1.5884916611        3.4783930815       -1.3732914469
 C          1.5366329626        4.9575776543       -1.1403268359
 C          2.7372683264        4.3430698076       -1.7934821596
 H          2.8959606842        4.5089375804       -2.8483596670
 H          3.6505111164        4.2735273353       -1.2206618739
 H          0.8681785642        5.5499104416       -1.7457654969
 H          1.6364126032        5.3069261115       -0.1239218472
 H          0.9641445950        3.0683537070       -2.1560273336
