  62
        -98.94156606
 C          0.9297526365        1.8477440900        0.3000629486
 C          0.9759586545        0.7003750007       -0.5235531921
 C          1.9221073787       -0.3629916164       -0.1324335336
 C          2.6569768282       -0.1995155592        0.9830696085
 C          3.6851863988       -1.1306047297        1.5704102313
 C          5.0144516260       -1.1217130590        0.7996500578
 C          4.8757512033       -1.1857931333       -0.7186645190
 H          4.2824039414       -0.3353524003       -1.0583569654
 H          5.8756469159       -1.0776443871       -1.1469244867
 C          4.2703616335       -2.4781101991       -1.2613464548
 H          4.3366782345       -2.4331813102       -2.3510786007
 H          4.8733058352       -3.3246071526       -0.9260176198
 C          2.8088405627       -2.7390629564       -0.8877527483
 H          2.7195051186       -3.1220214187        0.1255257099
 H          2.4370640523       -3.5259449398       -1.5499551353
 C          1.8828068440       -1.5421289258       -1.0739078336
 H          2.0184464638       -1.1340022175       -2.0819732959
 H          0.8469726024       -1.8967698697       -1.0419135244
 H          5.5425655480       -0.1980616806        1.0490820187
 H          5.6190859230       -1.9603359257        1.1493690515
 H          3.8710476153       -0.7846326064        2.5900136092
 H          3.2795615505       -2.1361715288        1.6353981333
 O          2.5731698905        0.9248009327        1.7525364781
 C          1.7112276053        1.9587471944        1.4470955140
 O          1.7316753471        2.9098845007        2.2577967880
 H         -1.1222345255        0.8838179613        1.2723486724
 C         -1.8298254255        1.3477261429        0.6027244519
 C         -1.4474934631        2.4503825099       -0.1482940642
 C         -2.3881578076        3.0396152467       -0.9857252277
 C         -3.6679988587        2.5204343201       -1.0772681550
 C         -4.0276502065        1.3890912332       -0.3674456492
 C         -3.0915045517        0.7908084314        0.4706636944
 N         -3.4121199643       -0.3744347705        1.1881238745
 S         -2.3447573379       -1.6259571145        1.4402704160
 O         -3.1327429898       -2.6214025756        2.1376439542
 O         -1.1672325493       -1.1673649176        2.1375343563
 C         -1.8663664132       -2.3252790368       -0.1366173958
 C         -2.0488331610       -1.6761635267       -1.3401096689
 C         -1.6479428181       -2.3104755763       -2.5076473138
 C         -1.0746533556       -3.5701298377       -2.4565543528
 C         -0.8946351705       -4.2092196531       -1.2386972156
 C         -1.2936474618       -3.5822727066       -0.0702468151
 H         -1.1771877951       -4.0412647483        0.8985632815
 H         -0.4441377614       -5.1877993724       -1.1951666728
 H         -0.7620496221       -4.0538950770       -3.3684248223
 H         -1.7774683294       -1.8041270539       -3.4502329357
 H         -2.4707477794       -0.6858179796       -1.3747956087
 H         -4.3428785866       -0.7313155718        1.0274371209
 H         -5.0161600235        0.9661444697       -0.4623410990
 H         -4.3904108087        2.9912144295       -1.7263313648
 H         -2.1167799070        3.9041178866       -1.5693259061
 C         -0.0365157990        2.9727489233       -0.0167256042
 H          0.0000309288        3.6571198412        0.8445466024
 C          0.4241872013        3.7203608218       -1.2539441899
 C          0.2242178989        5.2007872126       -1.3726437246
 C          1.5967746152        4.6461989067       -1.1418272667
 H          2.3117805541        4.6759643727       -1.9501805424
 H          2.0397307569        4.7624517580       -0.1629642505
 H         -0.0009152978        5.6144490315       -2.3442395224
 H         -0.2566429970        5.7103261285       -0.5511198316
 H          0.3460308633        3.1180630073       -2.1518629068
 O          0.2569448372        0.5587706645       -1.5476468447
