  62
        -98.94570131
 C          2.5618187038        0.1287149094        0.0782493074
 C          2.4484295968        1.1972384538       -0.8406857618
 C          1.9194926015        2.4536452406       -0.3011522246
 C          1.5783494893        2.5287986913        0.9983778295
 C          1.0045664550        3.7329181072        1.6943757538
 C         -0.5132193755        3.8743019054        1.5128583951
 C         -0.9572331126        4.3702906152        0.1358752860
 H         -0.3854556788        5.2589183889       -0.1351912601
 H         -2.0040238767        4.6675570553        0.2242260082
 C         -0.8409471653        3.3194829107       -0.9768691779
 H         -1.7501206463        3.3258463864       -1.5839333734
 H         -0.7752638065        2.3226272764       -0.5335706521
 C          0.3355810294        3.5225475710       -1.9319667313
 H          0.1865537309        4.4402027074       -2.5066942852
 H          0.3470942604        2.6828203580       -2.6323375755
 C          1.7080617840        3.5943635703       -1.2509307211
 H          1.8194803945        4.5458538275       -0.7309812217
 H          2.4760959031        3.5252172393       -2.0259020179
 H         -0.8691221135        4.5818837481        2.2654947567
 H         -0.9783548604        2.9052455409        1.7115365449
 H          1.5035845492        4.6371533125        1.3441266653
 H          1.2157721873        3.6062368803        2.7582801417
 O          1.7371072788        1.4897871842        1.8594984951
 C          2.1914200767        0.2577774372        1.4173765601
 O          2.2392881313       -0.6201402303        2.3010621177
 O          2.7724878658        1.1030455922       -2.0576060684
 C          2.9923738351       -1.2353521206       -0.4249499320
 C          1.8871891873       -2.2423633174       -0.2062452202
 C          2.1255940339       -3.5854363027        0.0556345587
 C          1.0680339037       -4.4608898535        0.2391070537
 C         -0.2404924641       -4.0189547061        0.1873154716
 C         -0.4896953037       -2.6737044255       -0.0687537617
 C          0.5693635278       -1.8124981333       -0.2946537081
 H          0.3619297824       -0.7775828473       -0.5244232670
 N         -1.8036215925       -2.1767495060       -0.0543678465
 S         -2.1383506060       -0.5612532069       -0.3534984114
 O         -1.8403022681       -0.2142481921       -1.7271429500
 O         -1.5137630344        0.2392348990        0.6690335300
 C         -3.9037328130       -0.5801363688       -0.1096230240
 C         -4.7476749919       -0.6029051188       -1.2033819930
 C         -6.1172703269       -0.6461135131       -0.9932545743
 C         -6.6166250047       -0.6677461953        0.3001122929
 C         -5.7571474599       -0.6422972858        1.3887171605
 C         -4.3872432683       -0.5983144228        1.1849471508
 H         -3.6798150570       -0.5686458018        1.9977211030
 H         -6.1484563024       -0.6561148056        2.3931700043
 H         -7.6824594973       -0.7017546433        0.4615070650
 H         -6.7876948334       -0.6624241882       -1.8373389486
 H         -4.3129528766       -0.5763298256       -2.1896314035
 H         -2.5041650126       -2.8109760266       -0.4074569563
 H         -1.0622352623       -4.6980627686        0.3518716272
 H          1.2681665276       -5.5030469158        0.4369020131
 H          3.1395155951       -3.9459747210        0.1184448454
 H          3.1383642763       -1.1153604557       -1.5101646652
 C          4.3075786143       -1.6545687637        0.2001000501
 C          5.2965367112       -2.4687200168       -0.5782470064
 C          5.5741789410       -1.0242539621       -0.2940313390
 H          6.3399781317       -0.7737040197        0.4244143489
 H          5.4875827252       -0.3157283928       -1.1050730102
 H          5.8774179320       -3.2122534913       -0.0536044645
 H          5.0352922863       -2.7416490649       -1.5896608372
 H          4.2186756942       -1.8326894162        1.2658632654
