  62
        -98.94008629
 C          2.0747023077        0.4469091023        0.3944859010
 C          3.0744877983        0.5763847859       -0.6008542557
 C          3.9216492211       -0.6056830158       -0.8124457380
 C          3.6946319348       -1.7325832462       -0.1155316487
 C          4.4610928619       -3.0217006825       -0.2375129880
 C          5.7528028657       -3.0585619536        0.5912583534
 C          6.8961662986       -2.1960440595        0.0548842664
 H          7.7968617526       -2.4845812221        0.6003632814
 H          7.0632691927       -2.4300930997       -0.9968780947
 C          6.6820444691       -0.6850275401        0.2205318108
 H          5.8950781860       -0.5072099345        0.9571843625
 H          7.5944468627       -0.2287233833        0.6110210318
 C          6.3248747724        0.0497474990       -1.0715050578
 H          7.1624794288       -0.0087171811       -1.7699593994
 H          6.1580571754        1.1027109623       -0.8315211348
 C          5.0671061565       -0.4808248999       -1.7718308693
 H          4.7762159112        0.2348326386       -2.5443911141
 H          5.2747684224       -1.4408624116       -2.2433641375
 H          5.5182418838       -2.7580549715        1.6151326623
 H          6.0914887449       -4.0968153477        0.6193237454
 H          3.7979828758       -3.8117812456        0.1215545958
 H          4.6934630149       -3.2127164400       -1.2855419217
 O          2.6961669050       -1.8324323549        0.8035121144
 C          1.8875947582       -0.7477056570        1.0964719444
 O          1.0518127627       -0.9673444024        1.9981503657
 H         -1.4070843854        0.7245236084        0.9566586509
 C         -1.2216466049        1.2121956781        0.0105877745
 C          0.0413952804        1.7165021905       -0.2698701421
 C          0.2642925605        2.3189148365       -1.5036146706
 C         -0.7573504406        2.4068887543       -2.4313453973
 C         -2.0137125604        1.9010841222       -2.1503613258
 C         -2.2482958946        1.3001426469       -0.9186097515
 N         -3.5312150164        0.8228327772       -0.5964632729
 S         -3.6871534085       -0.5563107138        0.3640135428
 O         -3.4644299535       -0.1929950231        1.7404191912
 O         -2.8755464064       -1.6286675333       -0.1688260957
 C         -5.4192688799       -0.9018837507        0.1143463594
 C         -6.3456555298       -0.1544092067        0.8171576392
 C         -7.6949504501       -0.3883584264        0.6058836730
 C         -8.0939196660       -1.3603233555       -0.2997834828
 C         -7.1531393052       -2.1043526447       -0.9956458873
 C         -5.8015727190       -1.8740487953       -0.7902129927
 H         -5.0344528945       -2.4322577913       -1.3026875740
 H         -7.4662221421       -2.8615637139       -1.6962740222
 H         -9.1447167452       -1.5409424958       -0.4622884729
 H         -8.4289930545        0.1863483214        1.1472089130
 H         -5.9873789218        0.5828360472        1.5164163403
 H         -4.1357976211        0.7678203189       -1.4055486723
 H         -2.8091957737        1.9710084689       -2.8768349374
 H         -0.5712478848        2.8708571993       -3.3882049542
 H          1.2495719513        2.6873429324       -1.7399090035
 C          1.1329951599        1.5827734461        0.7656118255
 H          0.6560058538        1.2726586743        1.7058564729
 C          1.8563717042        2.8934651122        1.0052365942
 C          1.1602400624        3.9705345957        1.7790307229
 C          2.3125714447        3.2328419471        2.3906618916
 H          3.2526920618        3.7499532035        2.5111800971
 H          2.1035235235        2.5188372574        3.1746884583
 H          0.1684310650        3.7554019539        2.1483759455
 H          1.3069294411        4.9969439098        1.4803858185
 H          2.4976007313        3.1913304084        0.1868215356
 O          3.2747421819        1.6137736966       -1.2842829676
