  62
        -98.93834973
 C         -1.8233382838       -0.4044933642        0.0013459226
 C         -2.9228545908       -0.4746092529        0.8972434582
 C         -4.0715277328        0.4013400669        0.6188753212
 C         -4.0272930270        1.2219750118       -0.4440551574
 C         -5.0532316927        2.2278867010       -0.9026538158
 C         -6.5282810768        1.8078566021       -0.8547600041
 C         -6.7881287001        0.3209744368       -1.1376472756
 H         -7.5545021854        0.2354796330       -1.9102687653
 H         -5.8826412203       -0.1502658267       -1.5237482796
 C         -7.2760023222       -0.4449058549        0.0944416962
 H         -8.0157241442        0.1660860383        0.6163755882
 H         -7.7799593790       -1.3564504542       -0.2358175371
 C         -6.1863138629       -0.8626573244        1.0810755597
 H         -6.6744683663       -1.2938196616        1.9583547680
 H         -5.5688808635       -1.6494683849        0.6394540424
 C         -5.2456727428        0.2617640424        1.5445329839
 H         -5.7808267038        1.2011667162        1.6601640206
 H         -4.8318994959       -0.0246747331        2.5151989802
 H         -7.0529093926        2.4165981756       -1.5932428887
 H         -6.9488332798        2.0635148027        0.1167712458
 H         -4.9215006553        3.1399236194       -0.3128425159
 H         -4.7746942834        2.4686174573       -1.9316026996
 O         -2.9504988890        1.2649793121       -1.2756817564
 C         -1.8335311487        0.4662069110       -1.0867216879
 O         -0.9521541202        0.6439809526       -1.9532546904
 H          0.8111067538        0.7388468013       -0.6624701837
 C          1.1475825563        0.4283998385        0.3155009570
 C          0.4887535014       -0.6057530173        0.9653189228
 C          0.9317591520       -0.9857745024        2.2264996100
 C          2.0070769854       -0.3469452224        2.8201868962
 C          2.6618567024        0.6824647084        2.1685158763
 C          2.2198762138        1.0742184309        0.9115871626
 N          2.8936720424        2.1109104548        0.2301713181
 S          4.5157363879        1.8069911688       -0.0724569678
 O          5.2758402862        2.0600391862        1.1260147545
 O          4.8600916597        2.6118774711       -1.2229370975
 C          4.5692857796        0.0692325877       -0.4713332676
 C          5.0771150113       -0.8314147118        0.4423794643
 C          5.0359795357       -2.1835123346        0.1423210802
 C          4.4849768439       -2.6088015314       -1.0561735002
 C          3.9789049820       -1.6909974382       -1.9638197255
 C          4.0167306145       -0.3382667468       -1.6692237913
 H          3.6337237982        0.4025775122       -2.3532057250
 H          3.5501191917       -2.0219014646       -2.8964012780
 H          4.4501686563       -3.6622558875       -1.2855838185
 H          5.4283467835       -2.9003746153        0.8452535433
 H          5.4950652115       -0.4574929123        1.3624530752
 H          2.4293083016        2.3748621641       -0.6278249127
 H          3.5069479331        1.1874590167        2.6079392313
 H          2.3397217355       -0.6543184750        3.7997596701
 H          0.4206610315       -1.7827784259        2.7462345075
 C         -0.6530196328       -1.3287474641        0.2920579667
 H         -1.0453584221       -2.0670766716        1.0039342320
 C         -0.1484053042       -2.0647228775       -0.9352565217
 C          0.6385366215       -3.3261164315       -0.7521779895
 C         -0.7544202413       -3.3844927279       -1.3021717776
 H         -0.8911177992       -3.6150980694       -2.3480719420
 H         -1.5393570118       -3.7679076109       -0.6664635459
 H          1.4641965176       -3.5166357726       -1.4193791153
 H          0.7994355344       -3.6719313215        0.2573215469
 H          0.1355099507       -1.4050284665       -1.7446136907
 O         -2.9414940057       -1.2417269913        1.8958181285
