  62
        -98.93998414
 C         -2.1129770143       -1.4430122030        0.5327092373
 C         -2.0637439285       -0.2380260042        1.2808104710
 C         -3.1168429749        0.7430319199        1.0059663182
 C         -4.0714318633        0.4557898791        0.1028233126
 C         -5.2283521553        1.3408131378       -0.2743351563
 C         -4.8862116464        2.3935754190       -1.3376535494
 C         -4.0055956316        3.5461799459       -0.8531319902
 H         -4.0288699855        4.3136711571       -1.6293466169
 H         -4.4417995137        3.9810136125        0.0467070185
 C         -2.5443846422        3.1579395096       -0.5856154139
 H         -1.8839600110        3.9023123036       -1.0351939818
 H         -2.3251020052        2.2039623946       -1.0706349256
 C         -2.1744138675        3.0553145880        0.8942895283
 H         -2.2476260682        4.0402951037        1.3606301128
 H         -1.1369354161        2.7192876544        0.9628366611
 C         -3.0392867413        2.0721505805        1.6936606212
 H         -2.5705673387        1.9154445009        2.6682178712
 H         -4.0372716936        2.4822062793        1.8470440147
 H         -5.8295593128        2.8110473543       -1.6974509171
 H         -4.4018387378        1.8938541794       -2.1797709060
 H         -5.6180922672        1.8340855614        0.6166233121
 H         -6.0040652436        0.6852356580       -0.6760656014
 O         -4.0985229610       -0.7180138562       -0.5790175224
 C         -3.1033194778       -1.6791301069       -0.4212903581
 O         -3.2404984128       -2.6622576330       -1.1710710548
 O         -1.1774518828       -0.0013330007        2.1448985576
 C         -0.9857796185       -2.4271027454        0.7911498836
 C          0.2143985420       -2.0196557216       -0.0252092620
 C          0.1138765967       -1.8301590652       -1.4002797368
 C          1.2137725342       -1.4231548359       -2.1327956333
 C          2.4276034772       -1.1837882919       -1.5113723902
 C          2.5327937267       -1.3517674390       -0.1372748619
 C          1.4294492005       -1.7736901033        0.5949246154
 H          1.5125649089       -1.8929334986        1.6663289974
 N          3.7554144430       -1.1004532131        0.5062773488
 S          4.6204717646        0.2728851212        0.0997209041
 O          5.2626903764        0.0764983876       -1.1755396109
 O          5.4982894600        0.5038334333        1.2241262723
 C          3.4121955675        1.5789602727       -0.0213971281
 C          2.7998384947        2.0060106425        1.1402684844
 C          1.8439078607        3.0053279386        1.0666173093
 C          1.5136428056        3.5539133418       -0.1632818846
 C          2.1360181460        3.1134756224       -1.3207214615
 C          3.0956386388        2.1160907770       -1.2523519201
 H          3.6087401836        1.7525292409       -2.1275417452
 H          1.8767778468        3.5431060345       -2.2749677394
 H          0.7674000566        4.3309961493       -0.2169695328
 H          1.3570170459        3.3474973624        1.9659101354
 H          3.0846222491        1.5648281493        2.0818894388
 H          3.7219500920       -1.2196663020        1.5081262630
 H          3.2937792781       -0.8714929690       -2.0712130096
 H          1.1261657546       -1.2877677946       -3.2002119123
 H         -0.8365516015       -2.0046274148       -1.8835426967
 H         -0.7236176742       -2.2818870592        1.8515939788
 C         -1.3719297337       -3.8873090723        0.6202293515
 C         -0.8576662143       -4.7599156460       -0.4811096366
 C         -0.3654605851       -4.9593929893        0.9190114342
 H         -0.6848280712       -5.8345450614        1.4642192106
 H          0.6436943056       -4.6442631290        1.1398299732
 H         -1.5396373002       -5.4821037390       -0.9030719385
 H         -0.1789812365       -4.3322950232       -1.2020494803
 H         -2.3910795512       -4.0763155559        0.9401916814
