  62
        -98.92910128
 C          2.5956022313        0.8082862917        0.7213475606
 C          2.7651107582        0.2028957534       -0.5478276984
 C          3.3387039717       -1.1563000123       -0.5487217408
 C          3.6574632377       -1.7462800445        0.6149901512
 C          4.2846567289       -3.0993353083        0.8381679135
 C          3.7317377756       -4.2761244408        0.0203354860
 C          2.2399098861       -4.1824592274       -0.3322832984
 H          1.7526954899       -5.1204331706       -0.0594812480
 H          1.7659626171       -3.3887966211        0.2479508544
 C          1.9917753851       -3.9428857620       -1.8238394738
 H          2.6678689036       -4.5813414416       -2.3967093184
 H          0.9709920069       -4.2498187915       -2.0636568614
 C          2.1507096648       -2.4977875530       -2.2959489630
 H          1.3282577019       -1.8869349245       -1.9127727791
 H          2.0709267929       -2.4893528302       -3.3856453627
 C          3.4661069378       -1.8107883325       -1.8939886242
 H          4.3009959997       -2.5067069062       -1.9259212346
 H          3.6546112958       -1.0046114134       -2.6080739695
 H          4.3057349291       -4.3813020436       -0.8993033898
 H          3.9105012536       -5.1788905000        0.6067444379
 H          5.3595149382       -3.0110421629        0.6561012926
 H          4.1539312705       -3.3001025828        1.9041510405
 O          3.4578648889       -1.1337658380        1.8170144850
 C          2.9062535885        0.1326899720        1.9025071546
 O          2.7354059447        0.5376640902        3.0705292786
 O          2.4645533558        0.7565291483       -1.6353647950
 C          1.9759544577        2.1872170937        0.8705017381
 C          0.7496822275        2.2914814036       -0.0045777383
 C          0.5773102537        3.2587302729       -0.9843651191
 C         -0.5797686785        3.2849554177       -1.7440052478
 C         -1.5826822070        2.3539754871       -1.5495308772
 C         -1.4229594173        1.3831795986       -0.5684685743
 C         -0.2697140083        1.3687386896        0.2007540897
 H         -0.1429142753        0.6125251158        0.9676378570
 N         -2.4224777391        0.4051759878       -0.3735093038
 S         -4.0074799224        0.9576554882       -0.1722932608
 O         -4.5048382441        1.4034601231       -1.4487391440
 O         -4.0667805450        1.9258653254        0.9017607291
 C         -4.8296908726       -0.5497868072        0.3013658003
 C         -5.1706317751       -0.7572203034        1.6239719915
 C         -5.7933514348       -1.9444078248        1.9769531500
 C         -6.0584479982       -2.8994845449        1.0072860334
 C         -5.7091113385       -2.6766421450       -0.3166307947
 C         -5.0886337112       -1.4912176585       -0.6767300908
 H         -4.8074749178       -1.2712600895       -1.6932513433
 H         -5.9188188969       -3.4212138450       -1.0675210399
 H         -6.5430533367       -3.8222168630        1.2848920353
 H         -6.0684173906       -2.1189939156        3.0047020441
 H         -4.9504361548        0.0157400035        2.3429569322
 H         -2.1861051592       -0.2118184323        0.3928912698
 H         -2.4855582108        2.3685169610       -2.1377549543
 H         -0.6993243807        4.0391894672       -2.5073701659
 H          1.3566612307        3.9789359421       -1.1711120921
 H          1.6387625405        2.2333355301        1.9200493473
 C          2.9528109321        3.3383946453        0.6846402728
 C          4.4119704703        3.1664599899        0.9818893704
 C          3.9539236068        3.3720554253       -0.4291477607
 H          4.1625086871        4.3215841488       -0.9003542163
 H          3.9734124646        2.5342424002       -1.1073523311
 H          4.9313168148        3.9716163492        1.4796722460
 H          4.7506773737        2.1828023876        1.2738607243
 H          2.5147145643        4.2884438252        0.9757411114
