  62
        -98.94048125
 C         -1.3420422251       -1.5673217728       -0.0118141440
 C         -2.3070783078       -1.1068834006        0.9107163648
 C         -3.1667413697        0.0068041093        0.4679147647
 C         -2.9633228067        0.5346283598       -0.7536592166
 C         -3.7355012538        1.6567603128       -1.3927751717
 C         -3.3421677249        3.0526810277       -0.8668746111
 C         -2.8999056199        3.0952843623        0.5953602381
 H         -2.1455880519        2.3241775490        0.7644982631
 H         -2.4207161459        4.0607340561        0.7779160998
 C         -4.0303230321        2.9439839427        1.6122526516
 H         -3.5835329234        2.8898475836        2.6083546533
 H         -4.6562128749        3.8393782810        1.5779299407
 C         -4.9388172603        1.7326099048        1.4163726022
 H         -5.5096001260        1.8391612293        0.4978487219
 H         -5.6632248983        1.7304058846        2.2365545127
 C         -4.2381659817        0.3764443629        1.4638417208
 H         -5.0036670458       -0.4074817192        1.4006101655
 H         -3.7730314436        0.2519928258        2.4482389884
 H         -4.1830021698        3.7323606464       -1.0117111443
 H         -2.5109048713        3.4139063420       -1.4735984585
 H         -3.5259184943        1.6142018810       -2.4631966908
 H         -4.7985797046        1.4710860861       -1.2591919579
 O         -1.9715453257        0.1061700477       -1.5824717931
 C         -1.1524366211       -0.9593535404       -1.2528258886
 O         -0.3183858589       -1.2619113547       -2.1241321828
 O         -2.4509286889       -1.6067279838        2.0609329941
 C         -0.4814832787       -2.7629774139        0.3537872206
 C          0.9785104046       -2.3886373364        0.3152021518
 C          1.9403948274       -3.1179828413       -0.3700741777
 C          3.2626145009       -2.7059853663       -0.3760097456
 C          3.6558764244       -1.5696449488        0.3057538234
 C          2.7020899500       -0.8367568336        1.0014531826
 C          1.3791384198       -1.2487011370        1.0029832855
 H          0.6370856678       -0.6740159550        1.5442041939
 N          3.0953813455        0.3253239474        1.7014600843
 S          3.6875145823        1.5922974554        0.7779570169
 O          4.9065974868        1.1716027055        0.1371309799
 O          3.7938344598        2.7119698310        1.6854797799
 C          2.4237083627        1.9100282694       -0.4378279316
 C          2.3599728809        1.1222841795       -1.5698209022
 C          1.3348251697        1.3364388724       -2.4769991814
 C          0.3986457349        2.3301406911       -2.2377953601
 C          0.4794931811        3.1156980326       -1.0983673402
 C          1.4958934701        2.8998048033       -0.1828953896
 H          1.5948409568        3.4872938434        0.7160191372
 H         -0.2456013453        3.8926613732       -0.9161003027
 H         -0.4007398520        2.4852141918       -2.9453327420
 H          1.2573880789        0.7134417326       -3.3528018557
 H          3.1048580520        0.3593368423       -1.7268085827
 H          2.3732033263        0.6790177050        2.3137422400
 H          4.6778104355       -1.2271160266        0.2975692950
 H          3.9979160267       -3.2799010332       -0.9193540664
 H          1.6559328911       -4.0068791002       -0.9082146484
 H         -0.7444273774       -3.0064351217        1.3940790185
 C         -0.8319862217       -3.9451279287       -0.5254304175
 C         -0.6398548798       -5.3437254781       -0.0224394708
 C         -2.0217574390       -4.7834136821       -0.1696854259
 H         -2.6487110618       -5.1542440354       -0.9666478635
 H         -2.5661619250       -4.5176741025        0.7248400853
 H         -0.3198106037       -6.1039405521       -0.7189210607
 H         -0.2469167956       -5.4666216146        0.9754714363
 H         -0.6569241044       -3.7485734460       -1.5772044115
