  62
        -98.94967522
 C         -1.5004873804       -1.0597291612        0.0436024636
 C         -2.5218572281       -0.6385674146        0.9254134319
 C         -3.0567471883        0.7083959214        0.6918960521
 C         -2.5329407623        1.4626094141       -0.2921536828
 C         -3.0087247878        2.8370969927       -0.6622986463
 C         -4.0963968336        2.7792231232       -1.7441806313
 C         -5.2198904116        1.7893607884       -1.4361066913
 H         -5.9437215933        1.8547718629       -2.2511668565
 H         -4.8131968201        0.7756329128       -1.4460944895
 C         -5.9323050436        2.0349838789       -0.0988471520
 H         -7.0099975076        1.9550688143       -0.2558655447
 H         -5.7293829253        3.0486963752        0.2484152618
 C         -5.5685872750        1.0403305459        1.0050635997
 H         -6.2794122608        1.1681540980        1.8257603975
 H         -5.6810097318        0.0198655357        0.6303831036
 C         -4.1599120660        1.1828018401        1.5958875979
 H         -3.9892656628        2.2176841142        1.9009400912
 H         -4.1073431967        0.5511554213        2.4879140816
 H         -3.6300645994        2.4863861247       -2.6875883618
 H         -4.5135525911        3.7803440415       -1.8671452391
 H         -3.3905234848        3.3339071998        0.2276998656
 H         -2.1550048394        3.4024205431       -1.0405444225
 O         -1.5341752339        1.0345166249       -1.1033270644
 C         -0.9896677486       -0.2291144696       -0.9528990414
 O         -0.0771149820       -0.4968981185       -1.7590293724
 H          0.4363523822       -0.5671720691        1.6028176483
 C          1.1089673670       -1.2895981062        1.1632658408
 C          0.6026359415       -2.3372263103        0.4045990036
 C          1.4973496017       -3.2522997060       -0.1373976447
 C          2.8600098539       -3.1039284743        0.0558480043
 C          3.3605873711       -2.0314901881        0.7710472835
 C          2.4732314919       -1.1162774253        1.3242142712
 N          2.9269176887        0.0150218638        2.0382378960
 S          2.6270534210        1.5003933550        1.3163389876
 O          3.2667733834        2.4726232987        2.1778364514
 O          1.2127855619        1.6689781315        1.1052454757
 C          3.5139664387        1.4086557434       -0.2291177144
 C          2.9453345643        0.7561234908       -1.3044132396
 C          3.6913506763        0.6171854609       -2.4657805299
 C          4.9795270781        1.1243345547       -2.5316226926
 C          5.5345807221        1.7779376202       -1.4413239810
 C          4.7986641331        1.9170102991       -0.2763411537
 H          5.1857188794        2.4188998252        0.5959338779
 H          6.5355558227        2.1748720951       -1.4945251401
 H          5.5524295818        1.0102810244       -3.4383647190
 H          3.2515307076        0.1083458752       -3.3085529425
 H          1.9383885486        0.3726823796       -1.2380484197
 H          3.9066375286       -0.0322363456        2.2858562702
 H          4.4243319037       -1.8991927885        0.8999393102
 H          3.5414846739       -3.8228551636       -0.3723349558
 H          1.1262305642       -4.0813650233       -0.7174878267
 C         -0.8914426908       -2.4379799416        0.2190655654
 H         -1.3297779106       -2.8372548372        1.1465724156
 C         -1.2902725401       -3.3370637402       -0.9343860542
 C         -1.4898848796       -4.8073938156       -0.7217720934
 C         -2.6721197841       -3.9164620087       -0.9522928554
 H         -3.1937476199       -3.9793837009       -1.8955385906
 H         -3.3134850110       -3.6868978170       -0.1137425089
 H         -1.2020507925       -5.4861061095       -1.5104624155
 H         -1.3369799453       -5.1946157707        0.2742406381
 H         -0.8744806286       -3.0055843726       -1.8795518739
 O         -2.9622951915       -1.3557390800        1.8662272428
