  62
        -98.94965062
 C         -1.6801422908       -1.2297020090        0.3385517207
 C         -1.3318814405       -0.1699086790       -0.5309632191
 C         -1.8978936998        1.1411879612       -0.2015148588
 C         -2.6539453996        1.2825961813        0.9019255314
 C         -3.2659652589        2.5649079415        1.3971468518
 C         -4.6002831788        2.9243544823        0.7286490121
 C         -4.4953020089        3.4059546825       -0.7189367078
 H         -5.4659681588        3.8281051130       -0.9865273275
 H         -3.7618678785        4.2106157322       -0.7788569778
 C         -4.1396141496        2.3051714325       -1.7277953981
 H         -4.3171541400        1.3268605425       -1.2754356382
 H         -4.7972275298        2.3815758830       -2.5965258179
 C         -2.7008055897        2.3579741320       -2.2412736984
 H         -2.5474056794        3.2788710320       -2.8079388682
 H         -2.5479978602        1.5143057520       -2.9186513486
 C         -1.6353319095        2.2800415212       -1.1396985086
 H         -0.6632875497        2.1066388609       -1.6080878988
 H         -1.5881987490        3.2196562211       -0.5890727184
 H         -5.2590583092        2.0542148825        0.7772730621
 H         -5.0564354083        3.7199946023        1.3222743124
 H         -3.4400143687        2.4313514914        2.4673125618
 H         -2.5545218085        3.3809449512        1.2645291818
 O         -2.9407456899        0.2446671613        1.7329892713
 C         -2.4639836105       -1.0300128789        1.4727634809
 O         -2.8005801707       -1.8888243689        2.3156210608
 O         -0.5787503908       -0.3122322592       -1.5304641593
 C         -1.1214780115       -2.6185407392        0.0881122903
 C          0.3855445285       -2.5548079199        0.0134236300
 C          1.1368688380       -3.2829514801       -0.9009681503
 C          2.5157019880       -3.1626832107       -0.9309975105
 C          3.1707157686       -2.2998767512       -0.0712778105
 C          2.4282626491       -1.5753415710        0.8536826098
 C          1.0534629391       -1.7307694804        0.9103254001
 H          0.4927095695       -1.1620605003        1.6381937203
 N          3.0392051097       -0.6613028215        1.7390823299
 S          2.6235587404        0.9538354987        1.5576482603
 O          3.4388937510        1.6596822682        2.5237040802
 O          1.1985008805        1.1169444294        1.6843586406
 C          3.1760422303        1.3648443088       -0.0887073998
 C          4.4039910605        1.9821304783       -0.2357574599
 C          4.8770181004        2.2435546783       -1.5111082999
 C          4.1218287200        1.8748315789       -2.6144936299
 C          2.8947905597        1.2517622294       -2.4492495497
 C          2.4121002999        0.9898001394       -1.1755796197
 H          1.4575315297        0.5079861898       -1.0283454896
 H          2.3010101794        0.9603990498       -3.3008965697
 H          4.4901441699        2.0740182389       -3.6085223499
 H          5.8307078706        2.7294970179       -1.6402741400
 H          4.9534220908        2.2523340878        0.6516553100
 H          4.0474039397       -0.7370543420        1.7662730696
 H          4.2432969286       -2.1840877017       -0.1134930607
 H          3.0857509576       -3.7339832708       -1.6475118807
 H          0.6410712775       -3.9409284797       -1.5958273703
 H         -1.3998331616       -3.2239446893        0.9636494503
 C         -1.7562966121       -3.2227045787       -1.1483479097
 C         -1.9637377528       -4.7032833086       -1.2508064299
 C         -3.1370950823       -3.7945907981       -1.0443529895
 H         -3.8234294724       -3.6395935676       -1.8632460193
 H         -3.6072540321       -3.7744612681       -0.0715334394
 H         -1.8484787532       -5.1749805484       -2.2150703500
 H         -1.6452131529       -5.3125682789       -0.4185015901
 H         -1.5083716620       -2.6748091386       -2.0502420096
