  62
        -98.94520861
 C         -2.0937225816       -1.4499632499       -0.0090552556
 C         -1.8998759156       -0.4622189309       -1.0049197102
 C         -2.7806884856        0.7130859458       -0.9225560721
 C         -3.6848455454        0.7984424206        0.0694475646
 C         -4.5926508872        1.9692389221        0.3072113183
 C         -3.9437838730        2.9930696398        1.2494454368
 C         -2.5178262812        3.3810797479        0.8570673080
 H         -2.1819850480        4.1340955700        1.5730452040
 H         -1.8656355584        2.5121830826        0.9716131258
 C         -2.3807014060        3.9308385946       -0.5694838805
 H         -3.3573002902        4.2426673279       -0.9415770419
 H         -1.7467838163        4.8193700775       -0.5459269132
 C         -1.7471311226        2.9563089712       -1.5637556888
 H         -1.4982611164        3.5110517320       -2.4722294597
 H         -0.8150123165        2.5638124241       -1.1503005610
 C         -2.6223536517        1.7684668625       -1.9810212282
 H         -2.1310371535        1.2751738476       -2.8247616255
 H         -3.5985005487        2.1263343624       -2.3148829955
 H         -4.5726437587        3.8850190036        1.2727611583
 H         -3.9189503537        2.5689982093        2.2559177763
 H         -5.5142698821        1.6027901045        0.7625327770
 H         -4.8320317806        2.4369858840       -0.6458385127
 O         -3.8404177766       -0.1673791407        1.0101275492
 C         -3.0548539754       -1.3052151764        0.9967630320
 O         -3.3046419585       -2.1090535718        1.9171065786
 O         -1.0465844286       -0.5397813917       -1.9284860030
 C         -1.2638902130       -2.7245201031        0.0458637331
 C          0.1229277862       -2.3972001724        0.5453866985
 C          0.4213606420       -2.5328643680        1.8974140296
 C          1.6777475022       -2.2103122935        2.3777502569
 C          2.6595094827       -1.7392927642        1.5235875587
 C          2.3637158002       -1.5767185969        0.1760535051
 C          1.1057158261       -1.9148647939       -0.3063114444
 H          0.8795791427       -1.7710047199       -1.3510989222
 N          3.3434703308       -1.0975243253       -0.7117676232
 S          4.2525965683        0.2526372342       -0.3372615560
 O          4.9496242861        0.5840034941       -1.5583834030
 O          5.0770266560       -0.0333899751        0.8102825648
 C          3.0900849683        1.5445298075        0.0625985728
 C          2.6044165494        1.6494846733        1.3506994205
 C          1.6843505817        2.6449547430        1.6393537116
 C          1.2745155464        3.5182599803        0.6442442675
 C          1.7735522186        3.4011884153       -0.6441857572
 C          2.6840752731        2.4006682502       -0.9417754896
 H          3.0999229785        2.2781652331       -1.9289011518
 H          1.4543459044        4.0832642822       -1.4158024461
 H          0.5615465408        4.2940473867        0.8738133571
 H          1.2923217982        2.7366243496        2.6397084888
 H          2.9566400923        0.9647803589        2.1041530108
 H          3.0190393660       -1.0408818605       -1.6664637939
 H          3.6460972367       -1.4928512550        1.8815085203
 H          1.8982594529       -2.3311498188        3.4277271116
 H         -0.3469585780       -2.8873475286        2.5700618095
 H         -1.7481755877       -3.3593156472        0.7994630342
 C         -1.2564244805       -3.4697590815       -1.2736422915
 C         -0.8152513539       -4.9012383298       -1.2955599158
 C         -2.2592423319       -4.5582700006       -1.5034595564
 H         -2.6802249475       -4.6704136843       -2.4914628015
 H         -2.9557666839       -4.7743240087       -0.7062753484
 H         -0.2424101168       -5.2525254057       -2.1400862942
 H         -0.5314485877       -5.3494873703       -0.3552347469
 H         -1.0022109511       -2.8501378222       -2.1233274192
