  62
        -98.93909215
 C         -1.9779720954       -0.8955953945        0.0938344826
 C         -2.2462330811        0.0579563785        1.1000743989
 C         -2.3270389368        1.4630010772        0.6687808962
 C         -2.1200310883        1.7595654380       -0.6261150000
 C         -2.1912163145        3.1140634480       -1.2762792017
 C         -3.5965958998        3.3747772021       -1.8451152396
 C         -4.5882207279        3.9878705390       -0.8569817789
 H         -4.3065925695        5.0249932297       -0.6641009214
 H         -5.5663374132        3.9976687527       -1.3430202343
 C         -4.7126759765        3.2581866185        0.4829494321
 H         -4.7369446813        2.1801428977        0.3141161515
 H         -5.6685750152        3.5382129727        0.9295445551
 C         -3.5851060961        3.6052194505        1.4665774190
 H         -4.0180110063        3.8972320107        2.4255650003
 H         -3.0414021731        4.4735899355        1.0951477144
 C         -2.5974683962        2.4655882359        1.7577439833
 H         -1.6396948959        2.8900682318        2.0795688250
 H         -2.9678693501        1.8677602645        2.5968590475
 H         -3.5084719553        4.0495287864       -2.6989350893
 H         -3.9863962176        2.4241833917       -2.2178529393
 H         -1.8968532931        3.8908875049       -0.5766640734
 H         -1.4751018812        3.0961073014       -2.1007330821
 O         -1.8636976362        0.8088418282       -1.5662857725
 C         -1.7618478274       -0.5291627830       -1.2344163616
 O         -1.4991086963       -1.2814142989       -2.1929368278
 O         -2.4154636511       -0.2523681343        2.3126460081
 C         -1.8095331726       -2.3535566205        0.4802022620
 C         -0.4079199785       -2.7971128410        0.1370272542
 C         -0.1111343874       -4.0148297615       -0.4610113338
 C          1.1964215670       -4.3335131674       -0.7862087432
 C          2.2268937656       -3.4462152737       -0.5379220663
 C          1.9419114191       -2.2332104158        0.0798540461
 C          0.6379181260       -1.9312892857        0.4315492608
 H          0.4308034969       -0.9847112426        0.9110172652
 N          2.9612207592       -1.3078337626        0.3697809137
 S          2.5843384947        0.3356551978        0.2489680742
 O          1.9861860865        0.7658652211        1.4892536713
 O          1.8289818698        0.5973635801       -0.9553964051
 C          4.2247631549        1.0237526809        0.1147333408
 C          4.9849074695        1.1514548007        1.2622533034
 C          6.2721223174        1.6544948961        1.1601928185
 C          6.7754570397        2.0187728637       -0.0800750156
 C          6.0003703451        1.8865677466       -1.2222991066
 C          4.7124146906        1.3825280464       -1.1274579404
 H          4.0692108282        1.2677392280       -1.9854408495
 H          6.3921955413        2.1734980729       -2.1847877402
 H          7.7770410264        2.4113012497       -0.1567121262
 H          6.8766717425        1.7609485899        2.0463196392
 H          4.5465033241        0.8638207187        2.2035849228
 H          3.8263405961       -1.5201923818       -0.1092798099
 H          3.2414703291       -3.6856750438       -0.8177616155
 H          1.4127409924       -5.2798445961       -1.2583589739
 H         -0.9048572760       -4.7081478953       -0.6863456252
 H         -1.9240548935       -2.3832913073        1.5746143290
 C         -2.8881814440       -3.2095919403       -0.1494392364
 C         -3.3650768038       -4.4534845884        0.5375577339
 C         -4.2458906911       -3.2427669965        0.4838401174
 H         -5.1136528091       -3.2607663776       -0.1582065297
 H         -4.3830108150       -2.6666669523        1.3874215079
 H         -3.6326439282       -5.3061438504       -0.0680239333
 H         -2.9111942141       -4.7065583036        1.4837219868
 H         -2.8399825121       -3.2042277670       -1.2326417069
