  62
        -98.94225895
 C          0.8296453105        1.2326091601        0.6761798393
 C          1.3766714704        1.0765078000       -0.6181959307
 C          2.1975648402       -0.1275179802       -0.8394938907
 C          2.3637473501       -1.0005816001        0.1684851094
 C          3.1783424099       -2.2656292702        0.1633026394
 C          4.6087731100       -2.0006710704        0.6631533293
 C          5.6004494700       -1.5729406006       -0.4176035308
 H          6.5313375001       -1.3002520407        0.0846937792
 H          5.8148486798       -2.4251682007       -1.0658610307
 C          5.1500141701       -0.3977245006       -1.2887126408
 H          4.6920350303        0.3703884695       -0.6629847109
 H          6.0391183102        0.0426174592       -1.7440268409
 C          4.1746264500       -0.8092515706       -2.4020715407
 H          4.1661539798       -1.8956540906       -2.4895167907
 H          4.5340936900       -0.4258686107       -3.3594587408
 C          2.7389476801       -0.2928238304       -2.2324012307
 H          2.6547138702        0.7023052896       -2.6815768008
 H          2.0483956700       -0.9386163003       -2.7875060206
 H          4.5550144802       -1.2321510103        1.4381972993
 H          4.9903520099       -2.9110484704        1.1297172394
 H          2.6901509999       -2.9536098901        0.8571523495
 H          3.1812191098       -2.7151859103       -0.8256116605
 O          1.8196668802       -0.8096765699        1.4031690994
 C          1.0242691304        0.2872868902        1.6807733194
 O          0.5550219605        0.3067953603        2.8365121794
 H         -1.4579980197        0.2352212804        0.2987693495
 C         -1.8519954396        1.1041836405       -0.2079267105
 C         -1.2707264794        2.3442285004        0.0242023293
 C         -1.7991481993        3.4546040604       -0.6204761107
 C         -2.8597013793        3.3114335205       -1.4990941407
 C         -3.4023204495        2.0673046906       -1.7635154105
 C         -2.8890920297        0.9515628605       -1.1115082005
 N         -3.4145387199       -0.3308511494       -1.3315301203
 S         -2.3922460401       -1.6562496295       -1.3179591803
 O         -1.0946593300       -1.3536463198       -1.8754539704
 O         -3.1458867603       -2.6883948495       -2.0012053502
 C         -2.2460009300       -2.0960550694        0.3999342897
 C         -3.3741565600       -2.0855326192        1.1957089698
 C         -3.2522511800       -2.4424232691        2.5289525898
 C         -2.0145702700       -2.8036377493        3.0394739598
 C         -0.8932528900       -2.8173167195        2.2250737997
 C         -1.0093674401       -2.4633928596        0.8908513997
 H         -0.1602007501       -2.4423116697        0.2244183696
 H          0.0723697800       -3.0829389196        2.6247057197
 H         -1.9187126300       -3.0713450692        4.0798197498
 H         -4.1204553199       -2.4323326389        3.1681406799
 H         -4.3172941800       -1.7928358791        0.7653600698
 H         -4.1038569899       -0.3930809094       -2.0667004303
 H         -4.2109610696        1.9557870306       -2.4696408205
 H         -3.2581371692        4.1807534605       -2.0000240307
 H         -1.3734213891        4.4292498204       -0.4465471408
 C         -0.0946826293        2.4005017603        0.9701715593
 H         -0.4682979293        2.2434060004        1.9929970093
 C          0.6599618308        3.7122566902        0.9209025491
 C          0.2214546111        4.8682114003        1.7678120790
 C          1.4745293510        4.1215015802        2.1099824290
 H          2.4265118010        4.6024009300        1.9423090489
 H          1.4625419809        3.4638914002        2.9671544891
 H         -0.6406630689        4.7252414605        2.4014697091
 H          0.3157002012        5.8662370303        1.3670662390
 H          1.0678179208        3.9193750300       -0.0617836209
 O          1.1950220004        1.9067139299       -1.5478157508
