  62
        -98.94398501
 C          1.8081373898        0.6056832495       -0.9420298204
 C          1.9374694499        0.0592608105        0.3577095700
 C          3.3012822400        0.0374935708        0.9042065099
 C          4.3201704500        0.5454755301        0.1874226093
 C          5.7586510700        0.6236733903        0.6222380191
 C          6.5568266499       -0.6645712400        0.3796288600
 C          6.2203904299       -1.8241995092        1.3178730909
 H          6.9957140198       -2.5809420594        1.1826318014
 H          6.2767879100       -1.4817831284        2.3516602806
 C          4.8513402497       -2.4692457793        1.0611414716
 H          4.9551505496       -3.5566009293        1.0628585024
 H          4.4939665796       -2.1829726200        0.0694350314
 C          3.7800011799       -2.1159264484        2.0930059815
 H          2.8443148698       -2.5958395885        1.7950030020
 H          4.0654366900       -2.5137248776        3.0695008217
 C          3.5131350601       -0.6118844782        2.2384528503
 H          2.5971862902       -0.4796978977        2.8204263304
 H          4.3359930402       -0.1333922779        2.7695686199
 H          6.4072413997       -0.9783032108       -0.6559419298
 H          7.6143262199       -0.4202482600        0.5036019996
 H          5.8078534502        0.8903324911        1.6783897289
 H          6.2155209600        1.4263002998        0.0392453284
 O          4.1481955998        1.0852129092       -1.0486678211
 C          2.8987218798        1.1170273588       -1.6461486809
 O          2.8873954097        1.6256918280       -2.7856201213
 O          0.9713955000       -0.3877111189        1.0291405305
 C          0.4461201197        0.6786265391       -1.6099163302
 C         -0.4612274301        1.5896162399       -0.8180255108
 C         -0.0333662199        2.8879453700       -0.5489689719
 C         -0.8351175997        3.7640373607        0.1552956876
 C         -2.0784472797        3.3622830412        0.6136143980
 C         -2.5157992998        2.0708926110        0.3518033391
 C         -1.7115473200        1.1970878803       -0.3689692503
 H         -2.0712534402        0.2032148002       -0.5693291895
 N         -3.7869622698        1.6404709315        0.7690163296
 S         -3.9293151999        0.1831935321        1.5917784208
 O         -5.2262065898        0.2670550628        2.2318784809
 O         -2.8066461598       -0.0478766273        2.4690372008
 C         -4.0046742802       -1.0551828889        0.3165780817
 C         -5.0018421903       -0.9549341195       -0.6336171682
 C         -5.0871559406       -1.9264360102       -1.6177652274
 C         -4.1831884207       -2.9782436504       -1.6301777667
 C         -3.1893900706       -3.0652854197       -0.6666285468
 C         -3.0959291303       -2.0947451790        0.3187404824
 H         -2.3285958902       -2.1122726985        1.0773143723
 H         -2.4838435207       -3.8809008598       -0.6799976763
 H         -4.2505122909       -3.7348050309       -2.3963049861
 H         -5.8555792007       -1.8621506207       -2.3710399874
 H         -5.6880088602       -0.1263127094       -0.5834761387
 H         -4.3323275997        2.3547295919        1.2311006491
 H         -2.7046899995        4.0441672317        1.1693116276
 H         -0.4896288895        4.7673999808        0.3548384067
 H          0.9399017001        3.1994815996       -0.9041747223
 H          0.6184703196        1.1495230184       -2.5889188706
 C         -0.1223215505       -0.7069968810       -1.8299138091
 C         -1.1018527606       -0.9438081017       -2.9387958688
 C          0.2942749293       -1.4777979120       -3.0448933085
 H          0.4503244292       -2.5418249919       -2.9510382777
 H          0.9785918292       -0.9955162826       -3.7280367490
 H         -1.9088276407       -1.6413387515       -2.7733895981
 H         -1.3673179906       -0.0986855222       -3.5555711094
 H         -0.2482680404       -1.2599029602       -0.9062284486
