  62
        -98.93734769
 C         -2.2821236416       -0.5046492606       -0.2630327533
 C         -3.5306109792       -0.9768052353       -0.7436090060
 C         -4.7092891656       -0.6386225227        0.0643194843
 C         -4.5422355217        0.0374959747        1.2151402595
 C         -5.6566360219        0.5003340799        2.1072958442
 C         -6.1194564204        1.9142136481        1.7281329864
 C         -6.3913798249        2.0963079490        0.2347684876
 H         -6.7393800844        3.1214209772        0.0903219010
 H         -5.4514659403        1.9974935433       -0.3134712672
 C         -7.4227517840        1.1192674870       -0.3469616782
 H         -8.0105427293        0.6782394607        0.4588113512
 H         -8.1124118459        1.6768191148       -0.9841126478
 C         -6.8256536462        0.0036385768       -1.2067807817
 H         -6.1618530444        0.4365016237       -1.9597486151
 H         -7.6430619304       -0.4908823171       -1.7382003545
 C         -6.0512241432       -1.0810339044       -0.4474476399
 H         -6.6653714697       -1.4695622544        0.3673360291
 H         -5.8498810477       -1.8976339894       -1.1469770904
 H         -7.0233210545        2.1449825551        2.2947567005
 H         -5.3425788650        2.6234446736        2.0231807915
 H         -6.4881360298       -0.1977961178        2.0328129378
 H         -5.2918761657        0.5102420620        3.1356679302
 O         -3.3248400972        0.4171666511        1.6776583420
 C         -2.1635812665        0.1663280614        0.9551129972
 O         -1.1299368892        0.5801020408        1.5112333287
 H          1.4288621923        0.2941271779       -0.5487483497
 C          1.2661986073       -0.6602397518       -0.0765797896
 C          0.0665507598       -1.3336563281       -0.2353982942
 C         -0.1093277380       -2.5477303360        0.4244914654
 C          0.8905312408       -3.0707306729        1.2205048304
 C          2.0957852845       -2.4049310402        1.3600217426
 C          2.2781106085       -1.1894649052        0.7123723740
 N          3.4780548839       -0.4748491264        0.8535269306
 S          4.0469066639        0.4079784545       -0.4661639302
 O          3.4388765168        1.7145690377       -0.4636954500
 O          3.8948825297       -0.3628799094       -1.6802897194
 C          5.7733983124        0.5502540974       -0.0398753405
 C          6.1556710688        1.5220729621        0.8657513928
 C          7.4915830349        1.6173471463        1.2217471227
 C          8.4178301260        0.7445390350        0.6699813275
 C          8.0196932987       -0.2242313608       -0.2388359759
 C          6.6848555764       -0.3259472286       -0.5982799532
 H          6.3302916718       -1.0570521737       -1.3069030331
 H          8.7425176841       -0.8987816454       -0.6686759488
 H          9.4570511539        0.8222555057        0.9478944307
 H          7.8052127637        2.3712893483        1.9256279010
 H          5.4019587113        2.1833678192        1.2607316655
 H          4.2109022571       -1.0119319916        1.2959108146
 H          2.8815933685       -2.8158038712        1.9756975965
 H          0.7364626459       -4.0106505214        1.7291268371
 H         -1.0484252631       -3.0722717865        0.3080907939
 C         -1.0523298205       -0.8092437187       -1.0983606890
 H         -1.3719465200       -1.6274007815       -1.7666832421
 C         -0.6157950852        0.3365882396       -1.9989904177
 C         -1.6122425264        1.3023474672       -2.5645170784
 C         -0.6190504150        1.7633001321       -1.5423685612
 H          0.1950152543        2.4005836890       -1.8574937851
 H         -0.9625602455        1.9669373487       -0.5400271655
 H         -2.6426630387        1.1910770407       -2.2593524880
 H         -1.4906984993        1.6270434180       -3.5868827248
 H          0.1983026878        0.0438811046       -2.6569845843
 O         -3.6519212395       -1.6543181371       -1.7991986506
