  62
        -98.93755376
 C          2.3230617776        0.6765719653        0.0682120287
 C          3.3553979857        0.3942956342        0.9947082878
 C          4.3126237411       -0.6614492700        0.6225904179
 C          4.1589709343       -1.3065841489       -0.5489171953
 C          4.9386035202       -2.4473212420       -1.1692702671
 C          6.3035367970       -2.8519677891       -0.6187670467
 C          7.4082841490       -1.8162149467       -0.8251774767
 H          7.6404201248       -1.7641146004       -1.8919299447
 H          8.3043812451       -2.1643562948       -0.3068825454
 C          7.0812317771       -0.4007256265       -0.3560484045
 H          6.2451380259       -0.0055132119       -0.9366561786
 H          7.9478291220        0.2308272559       -0.5699761507
 C          6.7620209790       -0.2621560022        1.1311507128
 H          6.7064733898        0.8061179384        1.3573130040
 H          7.5752265640       -0.6868170689        1.7229099415
 C          5.4386082661       -0.9006508067        1.5870482853
 H          5.1418545499       -0.4269473889        2.5273246626
 H          5.5585388691       -1.9636983253        1.7816871123
 H          6.5980590922       -3.7587596392       -1.1541341356
 H          6.2223257108       -3.1192376050        0.4306393179
 H          4.2749346727       -3.3178708593       -1.1234143464
 H          5.0410360421       -2.1951696499       -2.2295620191
 O          3.1352318526       -1.0115178969       -1.4022798705
 C          2.2019005723       -0.0247381042       -1.1296556514
 O          1.3461568777        0.1220170993       -2.0230327623
 H         -0.8582571493        1.5123497503       -1.2504168256
 C         -1.0202792184        1.0564005353       -0.2863653834
 C         -0.0221859055        1.1004634867        0.6741015876
 C         -0.2525069817        0.4862588076        1.9023902875
 C         -1.4494315641       -0.1551898000        2.1579976111
 C         -2.4394264929       -0.2067976613        1.1917411338
 C         -2.2185558032        0.3988125593       -0.0373073060
 N         -3.2081407247        0.3273420095       -1.0317230539
 S         -4.7815169673        0.7505590132       -0.6392581056
 O         -5.3924516294        1.1469411044       -1.8893172977
 O         -4.8173228664        1.7227767251        0.4289019873
 C         -5.5154396503       -0.7781558710       -0.0959421079
 C         -5.4780512623       -1.8593191926       -0.9545083858
 C         -6.0519797540       -3.0542556366       -0.5510525538
 C         -6.6523474726       -3.1468205373        0.6959053150
 C         -6.6846464904       -2.0513054217        1.5449947605
 C         -6.1117113923       -0.8531385597        1.1475373174
 H         -6.1083558987        0.0231480190        1.7761299294
 H         -7.1521049792       -2.1253119596        2.5137683179
 H         -7.0975814953       -4.0785281407        1.0073414083
 H         -6.0283908129       -3.9084144297       -1.2085848538
 H         -5.0045283977       -1.7456241378       -1.9155598375
 H         -2.9277329317        0.7293361585       -1.9141612651
 H         -3.3735474709       -0.7100136668        1.3810204575
 H         -1.6140011667       -0.6233614650        3.1165631169
 H          0.5259165148        0.5148615788        2.6521828257
 C          1.3132576835        1.7554555528        0.4222020162
 H          1.6655035634        2.1810422365        1.3716988330
 C          1.2706092967        2.8561258495       -0.6168007345
 C          0.5968721556        4.1528092008       -0.2837043299
 C          2.0890330196        4.0932829770       -0.4080138267
 H          2.5540968288        4.5539057036       -1.2667365925
 H          2.6798929414        4.1553719230        0.4939752987
 H          0.1718019462        4.2528463985        0.7037049555
 H          0.0348436210        4.6569931209       -1.0552805643
 H          1.1864918183        2.4866841753       -1.6318031885
 O          3.4718200988        0.9969734837        2.0951507726
