  62
        -98.94034993
 C         -2.3140383499       -0.8335845908        0.1765581589
 C         -3.0260334100       -0.0404641126        1.1147792603
 C         -3.8764305803        1.0226043182        0.5656678821
 C         -3.9284741704        1.1954632005       -0.7672742276
 C         -4.7873065406        2.2057393115       -1.4700104858
 C         -6.1601671505        1.6190514218       -1.8269604568
 C         -6.8511665803        0.9111749796       -0.6615050680
 H         -7.8227224202        0.5654833000       -1.0211906685
 H         -6.2743887201        0.0236069193       -0.3912837195
 C         -7.0482934204        1.7848865874        0.5851857635
 H         -6.9483319207        2.8378210079        0.3193198253
 H         -8.0646156604        1.6396548566        0.9572753533
 C         -6.0999092703        1.4623030957        1.7413925129
 H         -6.1269719001        0.3897153153        1.9491935211
 H         -6.4642618804        1.9775766340        2.6340602838
 C         -4.6371295104        1.8773486563        1.5399690536
 H         -4.5902993107        2.9282029268        1.2469125054
 H         -4.1243860004        1.7643406548        2.4995684234
 H         -6.7959448207        2.4273391723       -2.1928868754
 H         -6.0285407204        0.8973323832       -2.6365468080
 H         -4.9086291008        3.0775260903       -0.8298771843
 H         -4.2812741307        2.5078164832       -2.3885850253
 O         -3.2248186002        0.4283459821       -1.6361716089
 C         -2.3981888600       -0.5999346685       -1.1962435107
 O         -1.8158384799       -1.1957633468       -2.1227200918
 H          0.1631152000       -0.6521670782       -1.0102352109
 C          0.6528683101       -0.7959425198       -0.0578824612
 C         -0.0267793797       -1.4440980917        0.9640869777
 C          0.6236328104       -1.6368882036        2.1768405774
 C          1.9201753703       -1.1876456036        2.3583598181
 C          2.5908541601       -0.5346503217        1.3398750192
 C          1.9511257800       -0.3396693098        0.1224115096
 N          2.6090364998        0.3407030421       -0.9148936593
 S          4.1919567799       -0.0728702469       -1.2840641400
 O          4.3792727898        0.3345320755       -2.6589748593
 O          4.4623779902       -1.4593435773       -0.9816098724
 C          5.1597708997        0.9852956015       -0.2285981383
 C          6.1316825498        0.4440545503        0.5898514508
 C          6.8762151597        1.2910103791        1.3963114522
 C          6.6377086294        2.6564592891        1.3689664846
 C          5.6599555992        3.1845156203        0.5387970355
 C          4.9128838294        2.3435860515       -0.2703271859
 H          4.1452069393        2.7134178325       -0.9296596452
 H          5.4768022090        4.2468421103        0.5203064973
 H          7.2168234193        3.3136147381        1.9982987757
 H          7.6368968098        0.8827336881        2.0420721515
 H          6.2779396701       -0.6243485196        0.5822654189
 H          2.0532363698        0.4322700135       -1.7530096591
 H          3.5992851400       -0.1804946818        1.4769135898
 H          2.4135153803       -1.3429668552        3.3055332278
 H          0.1020264805       -2.1313586951        2.9830343166
 C         -1.4373011196       -1.9327713716        0.7506394469
 H         -1.8654140895       -2.1399025234        1.7441570266
 C         -1.4979681494       -3.2283849203       -0.0475538153
 C         -0.3511962993       -3.7718777686       -0.8411192062
 C         -0.7601117991       -4.4424830109        0.4339816426
 H         -1.2510001289       -5.4023697109        0.3821223510
 H         -0.1100004491       -4.3220058622        1.2873888128
 H         -0.5779377892       -4.2519639671       -1.7810347671
 H          0.5763651906       -3.2202223484       -0.8537724253
 H         -2.4851123593       -3.3964946598       -0.4666252955
 O         -2.9531223099       -0.2204394347        2.3594654399
