  62
        -98.93495999
 C          2.3437050912       -0.6804763198        0.2011374208
 C          3.5857548001       -1.0843833402       -0.3410291696
 C          4.5549737027       -0.0143024788       -0.6316891845
 C          4.2042595500        1.2626941423       -0.3996711193
 C          5.0541526833        2.4904189695       -0.5776029632
 C          5.7614783434        2.8572348782        0.7382926981
 C          7.1060542600        2.1661449226        0.9619901446
 H          7.8424470029        2.5831439136        0.2718273794
 H          7.4319203692        2.4106180595        1.9756142785
 C          7.0946064283        0.6435547808        0.8032558592
 H          6.2060513708        0.2299638771        1.2835633515
 H          7.9627545330        0.2455747662        1.3321927667
 C          7.1554275677        0.1890269745       -0.6625240499
 H          7.9550310211       -0.5452259612       -0.7802806292
 H          7.4229423081        1.0400407247       -1.2886005841
 C          5.8735261133       -0.4642539419       -1.1999421846
 H          5.8420218546       -0.3462249498       -2.2883563054
 H          5.9047279268       -1.5408797921       -1.0050423669
 H          5.9288330246        3.9360646284        0.7566279245
 H          5.0823649681        2.6181222524        1.5606968432
 H          5.7690161773        2.3510938746       -1.3831068276
 H          4.3748266592        3.3021935522       -0.8461426516
 O          2.9869600322        1.6105164528        0.1021867626
 C          2.0294162222        0.6610321950        0.4151326578
 O          0.9691672616        1.1312476302        0.8708917536
 O          3.8761643141       -2.2900764154       -0.5683783166
 C          1.3050520182       -1.7427224177        0.5172866755
 C          0.1109616683       -1.5338417616       -0.3808649433
 C          0.2849543511       -1.6721475108       -1.7560945708
 C         -0.7652117180       -1.4533750990       -2.6254639476
 C         -2.0136491616       -1.0943983324       -2.1457211226
 C         -2.1969785560       -0.9494275128       -0.7781546420
 C         -1.1381207155       -1.1739714944        0.0955001766
 H         -1.2926863833       -1.0480605518        1.1555611072
 N         -3.4658616031       -0.6151401125       -0.2643821324
 S         -4.3622600188        0.5981754931       -1.0225240580
 O         -4.8465038545        0.0933872995       -2.2830636750
 O         -3.6069190089        1.8304547912       -1.0836929771
 C         -5.7182706131        0.7492183746        0.1235007166
 C         -5.6872402656        1.7381476239        1.0879994455
 C         -6.7355737331        1.8264599792        1.9906745344
 C         -7.7884696782        0.9270080884        1.9160546560
 C         -7.8048682169       -0.0607074357        0.9423791379
 C         -6.7608866496       -0.1536458131        0.0360136689
 H         -6.7341321879       -0.8979496413       -0.7423426845
 H         -8.6261864046       -0.7567696375        0.8868555300
 H         -8.6023596309        0.9985734947        2.6201619398
 H         -6.7264786978        2.5947913122        2.7470137601
 H         -4.8519404484        2.4203596986        1.1042175706
 H         -3.4207995968       -0.4271138410        0.7287964521
 H         -2.8374490322       -0.9113403859       -2.8157381732
 H         -0.6148074148       -1.5613555548       -3.6894234758
 H          1.2614621486       -1.9454413743       -2.1326354835
 H          1.7734480703       -2.6984128896        0.2424142781
 C          0.9784299971       -1.7661671899        1.9947411616
 C          0.3596898444       -2.9893888973        2.6008064980
 C          1.7853056278       -2.6418450388        2.9040678089
 H          2.0295327317       -2.2739922731        3.8893903331
 H          2.5657744745       -3.2389991696        2.4558655685
 H         -0.3751394306       -2.8640501613        3.3814972147
 H          0.1695667702       -3.8262210372        1.9461187120
 H          0.6790678339       -0.7965186019        2.3760196593
