  62
        -98.94143882
 C         -1.5688657076       -1.4900310418       -0.4294829370
 C         -0.8327294054       -1.9598225796        0.6851281512
 C          0.5211495674       -2.4967509909        0.4130709717
 C          0.9508046215       -2.5840772407       -0.8582174953
 C          2.2873630936       -3.0410540897       -1.3818603772
 C          3.3958865415       -2.0002002721       -1.1766608206
 C          3.4864560570       -1.4344386814        0.2374234564
 H          4.2923552342       -0.6949309845        0.2485083208
 H          2.5672965020       -0.8997978341        0.4830214547
 C          3.7764377736       -2.4603174145        1.3314966617
 H          4.6844127361       -3.0128171534        1.0793418301
 H          3.9715757428       -1.8970335266        2.2477497320
 C          2.6535372758       -3.4600249349        1.6295864232
 H          2.6618553081       -4.2940898089        0.9318335977
 H          2.8498081081       -3.8826813273        2.6191522669
 C          1.2599906619       -2.8428153257        1.6818444723
 H          0.5935738844       -3.5175019066        2.2325155574
 H          1.2918716840       -1.9202054668        2.2752942063
 H          3.2174282698       -1.1656899216       -1.8594758247
 H          4.3486599324       -2.4607368843       -1.4448413144
 H          2.5678349588       -3.9891323816       -0.9331249269
 H          2.1590749881       -3.2046743993       -2.4543474184
 O          0.1639265918       -2.2112515582       -1.9101084187
 C         -1.0705939874       -1.6229436229       -1.7281384018
 O         -1.6303815282       -1.2709864096       -2.7864146686
 H         -1.1116077757        0.4774972666        1.3427121169
 C         -1.6300423761        1.1832450490        0.7131370668
 C         -2.5997144805        0.7445585520       -0.1771277278
 C         -3.2706054252        1.6866401375       -0.9478867096
 C         -2.9656054045        3.0316098350       -0.8382301113
 C         -1.9620320260        3.4583304446        0.0130230995
 C         -1.2841905467        2.5245662005        0.7882791809
 N         -0.2339465750        2.9145236608        1.6397346290
 S          1.2315081808        2.1077984850        1.5352031463
 O          1.1076492770        0.7680803267        2.0426759350
 O          2.1633566867        2.9707298258        2.2286387207
 C          1.6193049197        2.0851982085       -0.2051586039
 C          2.3833738402        3.1075368098       -0.7332752020
 C          2.6428069386        3.1163501204       -2.0941477783
 C          2.1255410709        2.1155345143       -2.9033773507
 C          1.3572868563        1.0978727011       -2.3592237827
 C          1.1038912636        1.0795059385       -0.9969559268
 H          0.5142582570        0.2961215472       -0.5473907653
 H          0.9421951294        0.3185539163       -2.9805002092
 H          2.3216897457        2.1243017441       -3.9639588372
 H          3.2435518160        3.9031065713       -2.5211534429
 H          2.7693252713        3.8620059583       -0.0670159641
 H         -0.0725754213        3.9117748974        1.6618104256
 H         -1.7012493303        4.5037661972        0.0766967290
 H         -3.4969644379        3.7531498195       -1.4395384483
 H         -4.0234505721        1.3571457830       -1.6480434595
 C         -2.8842380373       -0.7339071502       -0.3280700339
 H         -3.3898374127       -0.8765895321       -1.2935341119
 C         -3.8120710831       -1.2119225262        0.7700538538
 C         -5.2874214224       -0.9965693820        0.6227462418
 C         -4.7161827132       -2.3776836439        0.5115963915
 H         -4.8893771780       -3.0797608963        1.3130618511
 H         -4.6730229983       -2.8349305603       -0.4664656619
 H         -5.8594088495       -0.7460889578        1.5028375145
 H         -5.6397989247       -0.5226613588       -0.2807457091
 H         -3.3850974867       -1.1248758292        1.7603655303
 O         -1.2495301426       -1.9328293005        1.8731772662
