  62
        -98.93593822
 C          2.4075442140        1.0146388137       -0.1568209447
 C          3.5609237039        0.9670985230        0.6610857607
 C          4.6513780063        0.0991095553        0.1929513970
 C          4.4995608966       -0.5775904464       -0.9603148789
 C          5.4831557098       -1.5611492610       -1.5280238424
 C          5.3821502269       -2.9021606168       -0.7732515928
 C          6.6330441193       -3.2732322216        0.0236526291
 H          6.3698027542       -4.1099311866        0.6742530185
 H          7.4032163410       -3.6228290753       -0.6671000960
 C          7.2405373776       -2.1531027434        0.8736506542
 H          7.8327543834       -1.4911511695        0.2400630009
 H          7.9385464697       -2.6244855024        1.5688489689
 C          6.2454707125       -1.3041820547        1.6753493760
 H          6.6899754309       -1.0893921931        2.6493395560
 H          5.3271374379       -1.8613853983        1.8619847273
 C          5.8974414764        0.0520795345        1.0335996276
 H          5.7235584180        0.7807720299        1.8309707436
 H          6.7483954004        0.4066696202        0.4454427253
 H          5.1791742441       -3.7049533614       -1.4836066254
 H          4.5222231032       -2.8528879458       -0.1019308018
 H          6.4903274490       -1.1565004710       -1.4570853726
 H          5.2345623425       -1.6979965722       -2.5805498963
 O          3.3768996508       -0.5012734035       -1.7212686408
 C          2.3029799618        0.2913354285       -1.3442493086
 O          1.3426644962        0.2673155056       -2.1364817419
 O          3.6717376431        1.6194648904        1.7345012059
 C          1.2434296092        1.8913637666        0.2682885970
 C          0.0021190945        1.0523283265        0.4434173241
 C          0.0492544954       -0.0368006408        1.3106457718
 C         -1.0610648341       -0.8341185117        1.5064493624
 C         -2.2457751294       -0.5658690267        0.8419981767
 C         -2.3079572290        0.5220154025       -0.0162551758
 C         -1.1900362127        1.3265352912       -0.2061795700
 H         -1.2564906144        2.1669835669       -0.8792921406
 N         -3.5013831172        0.7959104198       -0.7019646360
 S         -4.9521987769        0.7802969612        0.1362707755
 O         -5.8403156529        1.6233388340       -0.6340148375
 O         -4.7671561847        1.1424477040        1.5223338254
 C         -5.5066338096       -0.9072128691        0.0133349107
 C         -5.8630990118       -1.5989647844        1.1542618019
 C         -6.3089520264       -2.9060864074        1.0340734626
 C         -6.3910293411       -3.4945691198       -0.2185143277
 C         -6.0312464443       -2.7853552618       -1.3549386694
 C         -5.5858814983       -1.4781416456       -1.2417138204
 H         -5.2990685644       -0.8942839418       -2.1004044490
 H         -6.0958025458       -3.2464757482       -2.3273739305
 H         -6.7375219701       -4.5118875793       -0.3100939909
 H         -6.5893303497       -3.4589867038        1.9162320422
 H         -5.7776916441       -1.1027367787        2.1079363491
 H         -3.4456614448        1.5841761262       -1.3299364198
 H         -3.1149578303       -1.1864167352        0.9867314190
 H         -1.0058709436       -1.6758820236        2.1801601630
 H          0.9748206964       -0.2487165962        1.8287863409
 H          1.5243459167        2.2908743087        1.2540066641
 C          1.0769700414        3.0491115448       -0.6929427831
 C          0.4374670763        4.3239086145       -0.2316756408
 C          1.9115975221        4.2776681614       -0.4970995809
 H          2.2956788985        4.7844681930       -1.3696558077
 H          2.5858935308        4.2897167332        0.3466060094
 H         -0.1899716413        4.8678252796       -0.9220104526
 H          0.1074373196        4.3739908995        0.7951292299
 H          0.8999231371        2.7244629887       -1.7124208109
