  62
        -98.93635971
 C          1.0041608379        1.5442349789        0.7707996525
 C          1.6393163577        1.3040368958       -0.4715434112
 C          2.6871259026        0.2644414107       -0.4810996855
 C          2.9087120213       -0.4629149353        0.6262498508
 C          3.9290571069       -1.5482567313        0.8668390845
 C          4.2331617891       -2.5176940221       -0.2805263985
 C          3.0158415362       -2.9060206281       -1.1317849315
 H          2.9540326446       -3.9938868279       -1.1875076618
 H          2.1018046547       -2.5463114838       -0.6577802181
 C          3.0826026446       -2.3636840792       -2.5604323097
 H          2.4181394412       -2.9554676309       -3.1940314476
 H          4.0979431605       -2.4897816495       -2.9427634784
 C          2.6687758744       -0.9012074657       -2.7106976432
 H          2.8422898203       -0.6042542037       -3.7478380405
 H          1.5965994445       -0.7957550495       -2.5232714974
 C          3.4043710338        0.0851950746       -1.7891334407
 H          4.4397233363       -0.2121520951       -1.6408983794
 H          3.3927834035        1.0659032103       -2.2728010698
 H          4.6640842563       -3.4123696096        0.1723627272
 H          5.0024107285       -2.0935251486       -0.9238896155
 H          4.8599228644       -1.0682236552        1.1845025083
 H          3.5502707560       -2.1061758355        1.7266714969
 O          2.1982139772       -0.2651434822        1.7744356013
 C          1.2505135720        0.7361093122        1.8815753488
 O          0.6949053997        0.7962921500        2.9974978590
 H         -1.4031463649        0.3697590617        0.4524353685
 C         -1.6998488193        1.1316365026       -0.2531739994
 C         -1.1103999206        2.3873397560       -0.1737178618
 C         -1.4900357593        3.3592841468       -1.0881549185
 C         -2.4353936049        3.0687416188       -2.0572533366
 C         -3.0296591943        1.8218923878       -2.1231819563
 C         -2.6559456869        0.8413667799       -1.2100455281
 N         -3.2156940453       -0.4441831275       -1.2494624788
 S         -3.5101901480       -1.2780846794        0.1711716087
 O         -4.5183474725       -2.2518212003       -0.1920875908
 O         -3.8548428114       -0.3822176404        1.2502857024
 C         -1.9955348641       -2.1429925146        0.5281060895
 C         -1.5433711726       -3.0693485480       -0.3914029828
 C         -0.3887157531       -3.7809545931       -0.1120254324
 C          0.2938262214       -3.5547644647        1.0747701182
 C         -0.1708036874       -2.6203513319        1.9863973029
 C         -1.3292097201       -1.9094989456        1.7141834488
 H         -1.7132250763       -1.1722690455        2.4031226223
 H          0.3632390354       -2.4258517835        2.9033007894
 H          1.1930838463       -4.1096459633        1.2917253911
 H         -0.0207955274       -4.5072997874       -0.8186616960
 H         -2.1051595245       -3.2209789393       -1.2980370063
 H         -3.9551659609       -0.5711290908       -1.9246244537
 H         -3.7699213080        1.6025754434       -2.8776656301
 H         -2.7175387328        3.8282917257       -2.7707646577
 H         -1.0313691568        4.3339648128       -1.0579994882
 C         -0.0886982481        2.5893584870        0.9186084700
 H         -0.5838872671        2.3433162838        1.8737169453
 C          0.3998601302        4.0230497922        1.0498060462
 C          1.7568683697        4.3244035058        1.6115898757
 C          1.4625806146        4.6074766857        0.1706154421
 H          1.3590686105        5.6386730864       -0.1348806036
 H          1.8955701522        3.9692688647       -0.5819792831
 H          1.8580406022        5.1557528175        2.2931859164
 H          2.3949505685        3.4848632043        1.8477952150
 H         -0.4012853170        4.6916418957        1.3515068244
 O          1.3717219480        1.9300250584       -1.5282911262
