  62
        -98.94471403
 C         -2.1318986169       -1.0151026095       -0.4298919066
 C         -3.1851229198       -1.2340188421        0.4932073331
 C         -4.4397412680       -0.5272088547        0.2166258591
 C         -4.5333423596        0.2663435873       -0.8658169105
 C         -5.7499449165        1.0425660378       -1.2915632135
 C         -5.9024894488        2.3979968413       -0.5876398338
 C         -6.3256104273        2.3249060990        0.8800953722
 H         -7.2149461366        1.7002670259        0.9698917165
 H         -6.6058859590        3.3357766803        1.1829403687
 C         -5.2343848652        1.8106362632        1.8294657678
 H         -5.1864452581        2.4537812343        2.7111285984
 H         -4.2618046811        1.8739486993        1.3354771072
 C         -5.4472142947        0.3797177449        2.3235865783
 H         -6.3521891454        0.3335810387        2.9334049287
 H         -4.5996073906        0.1071457068        2.9573157701
 C         -5.5579977253       -0.6648986667        1.2052646937
 H         -6.5218688095       -0.5790666646        0.7041955281
 H         -5.4836159184       -1.6578978908        1.6552402007
 H         -6.6597574837        2.9651925044       -1.1338903431
 H         -4.9582148924        2.9417531391       -0.6681977008
 H         -6.6449095551        0.4422002279       -1.1257129895
 H         -5.6447892395        1.2217631434       -2.3637944227
 O         -3.5031611204        0.4427869257       -1.7342525676
 C         -2.2744215064       -0.1714799102       -1.5315312698
 O         -1.4226723858        0.1047007312       -2.3979084083
 O         -3.0814318493       -1.9876685877        1.4969846522
 C         -0.7991965697       -1.6983206060       -0.1698210532
 C          0.2076794596       -0.6391490688        0.2036036192
 C          0.1786944339       -0.1070119849        1.4902710306
 C          1.0471802928        0.9030386614        1.8579886755
 C          1.9616341201        1.4074984235        0.9495858129
 C          1.9983002801        0.8834446144       -0.3356023386
 C          1.1355888616       -0.1435261756       -0.6987630855
 H          1.1662863967       -0.5292030375       -1.7052177925
 N          2.9184941334        1.3942439843       -1.2642971059
 S          4.4907399630        1.6658852625       -0.7696529774
 O          4.5682011995        2.9109227686       -0.0460584174
 O          5.2868035324        1.5855300071       -1.9741459919
 C          4.8732995075        0.3084518212        0.3234695552
 C          4.8486855287       -0.9702961754       -0.1973757288
 C          5.1094912539       -2.0410200178        0.6416963622
 C          5.3865780347       -1.8161807856        1.9817210336
 C          5.4113702750       -0.5264310589        2.4885073708
 C          5.1509913002        0.5485583750        1.6534891999
 H          5.1599709074        1.5669205973        2.0063889458
 H          5.6292619027       -0.3544517179        3.5302613202
 H          5.5854467017       -2.6521493643        2.6335978780
 H          5.0922525223       -3.0451743152        0.2494539884
 H          4.6360903318       -1.1095055879       -1.2451187089
 H          2.8753082283        0.9577808914       -2.1726601457
 H          2.6331839990        2.2090637295        1.2110140926
 H          1.0107647684        1.3065551361        2.8584467548
 H         -0.5459944223       -0.4903012405        2.1950604694
 H         -0.9687511048       -2.3325216394        0.7108818566
 C         -0.3734081299       -2.5765319863       -1.3268071575
 C          0.7021256128       -3.5985705173       -1.1143634262
 C         -0.7192955737       -4.0339775167       -1.3026274568
 H         -0.9956644240       -4.5121191258       -2.2304937728
 H         -1.2595908454       -4.4049363041       -0.4441040239
 H          1.4049314432       -3.7828093704       -1.9124913203
 H          1.1265612196       -3.6729073747       -0.1247992005
 H         -0.4194297359       -2.0755639499       -2.2862813096
