  62
        -98.94420389
 C          2.0559761003        1.2865269902        0.4748245196
 C          2.8194632300        0.9659411397       -0.6743108405
 C          4.0356070999        0.1743678295       -0.4336290405
 C          4.3420329301       -0.2059475501        0.8195708795
 C          5.5149348100       -1.0642678403        1.1932455995
 C          5.1367846598       -2.5522370002        1.1918599300
 C          4.4005310194       -3.0030944904       -0.0700459997
 H          4.2113369592       -4.0742786804        0.0295245107
 H          3.4264427194       -2.5095175403       -0.1123716396
 C          5.1594912091       -2.7377538410       -1.3778096000
 H          5.0932259787       -3.6279490211       -2.0068579897
 H          6.2158849692       -2.5692910311       -1.1652087803
 C          4.6154445491       -1.5690863011       -2.2015476002
 H          3.5371972190       -1.6868906009       -2.3379047399
 H          5.0763010888       -1.6083222015       -3.1921194803
 C          4.8785983295       -0.1708200910       -1.6287167106
 H          5.9400478796       -0.0608731711       -1.3980179309
 H          4.6158805694        0.5578728288       -2.4010600208
 H          6.0483706397       -3.1403646203        1.3124112999
 H          4.4912006599       -2.7466758598        2.0516034402
 H          6.3275195499       -0.8847609606        0.4920709192
 H          5.8428111503       -0.7830991000        2.1954566693
 O          3.5759946204        0.1082443403        1.8958686096
 C          2.4106694305        0.8409462305        1.7487675297
 O          1.7839188209        1.0274744309        2.8128206098
 H         -0.4019097297       -0.0562882391        1.3707718407
 C         -0.7445703199        0.1143580507        0.3575170707
 C         -0.2542816599        1.2118847504       -0.3415574498
 C         -0.7000407602        1.4282184601       -1.6379169397
 C         -1.5884401505        0.5439899501       -2.2272391492
 C         -2.0611745905       -0.5560313396       -1.5362488188
 C         -1.6406585803       -0.7664537293       -0.2279141688
 N         -2.1393918703       -1.8631891590        0.4933809716
 S         -3.7699515704       -2.2165670187        0.3645594821
 O         -4.1214507802       -2.8442201883        1.6192281524
 O         -4.0017006008       -3.0079837990       -0.8184285976
 C         -4.5890822001       -0.6392754886        0.1993697719
 C         -4.4130024597        0.2981911416        1.1978136916
 C         -5.0176904995        1.5376858517        1.0667955214
 C         -5.7850624397        1.8172126215       -0.0538269685
 C         -5.9586614902        0.8627087113       -1.0436346582
 C         -5.3542674704       -0.3779506788       -0.9189882080
 H         -5.4589222007       -1.1476711090       -1.6662896077
 H         -6.5578202703        1.0814223211       -1.9127308781
 H         -6.2503078896        2.7850129916       -0.1542364287
 H         -4.8845018392        2.2809170419        1.8365217611
 H         -3.8131356695        0.0504386618        2.0591320715
 H         -1.8219382901       -1.9075489288        1.4501242416
 H         -2.7378612108       -1.2617577496       -1.9900933384
 H         -1.9142742307        0.7122774998       -3.2421795692
 H         -0.3349872802        2.2746230098       -2.1946354700
 C          0.7646635204        2.0815213404        0.3546322197
 H          0.4191622507        2.2472016608        1.3844122098
 C          0.9900058305        3.4247851802       -0.3035690607
 C         -0.0240249592        4.5122861304       -0.1201746908
 C          1.3100887710        4.6096791703        0.5553174288
 H          2.0241523810        5.3321654801        0.1894055685
 H          1.3573263312        4.4546336207        1.6236722089
 H         -0.8857041691        4.2914408507        0.4912939495
 H         -0.2286368193        5.1725783202       -0.9488128109
 H          1.4978410103        3.3531810098       -1.2569454008
 O          2.5131553097        1.3187862494       -1.8418110605
