  62
        -98.94478065
 C          1.9697097426        0.4598045039       -0.0566987634
 C          2.9914554278        0.6008081190        0.9205865036
 C          4.1412164543       -0.3038864694        0.8047682972
 C          4.1599235407       -1.2149555905       -0.1846614222
 C          5.2858380899       -2.1698296522       -0.4532453664
 C          6.2985735199       -1.5722347772       -1.4400523642
 C          6.7473160446       -0.1555271478       -1.0816260985
 H          5.8952603480        0.5219125140       -1.1729878728
 H          7.4830226768        0.1510350456       -1.8282987838
 C          7.3547916663       -0.0179271064        0.3214042718
 H          8.2607742983        0.5878913873        0.2526477389
 H          7.6495315725       -0.9989995517        0.6956738506
 C          6.4417969217        0.6611527802        1.3440558656
 H          6.0695428692        1.6031828869        0.9337214444
 H          7.0405707468        0.9026353438        2.2262987825
 C          5.2405450477       -0.1656182543        1.8200197810
 H          4.7961817823        0.3543676527        2.6737211568
 H          5.5797351531       -1.1478302449        2.1557188689
 H          5.8414345806       -1.5461323295       -2.4319703034
 H          7.1674876010       -2.2313938497       -1.4840805641
 H          4.8681521834       -3.0823176683       -0.8822812819
 H          5.7784206048       -2.4146880263        0.4858740929
 O          3.1588598831       -1.3359712824       -1.0900751805
 C          2.0464854664       -0.5067497953       -1.0592815366
 O          1.2297028488       -0.7483122779       -1.9717971255
 O          2.9431835479        1.4536762173        1.8463965896
 C          0.7891884489        1.4109136813        0.0566503145
 C         -0.3980664767        0.7382263235        0.7038187016
 C         -0.8664082731        1.1587615275        1.9430628120
 C         -1.9600030084        0.5456505461        2.5300508906
 C         -2.6089530929       -0.4964228386        1.8932116979
 C         -2.1468527311       -0.9242104414        0.6546883021
 C         -1.0558790177       -0.3031769539        0.0643182175
 H         -0.6951834480       -0.6489225398       -0.8928455247
 N         -2.8018960082       -1.9793931660       -0.0037871498
 S         -4.4707900320       -1.9047769572       -0.0937567622
 O         -5.0431917536       -2.4072855380        1.1310844945
 O         -4.8264412964       -2.6266705773       -1.2953372043
 C         -4.8495004263       -0.1690073806       -0.2648951535
 C         -5.6321961899        0.4616275125        0.6804290145
 C         -5.8836950321        1.8177862591        0.5460695989
 C         -5.3460540596        2.5168114948       -0.5231256174
 C         -4.5640397993        1.8678576692       -1.4664487006
 C         -4.3113514083        0.5120449399       -1.3389820659
 H         -3.7085523871       -0.0201614306       -2.0576303167
 H         -4.1464964623        2.4126611957       -2.2978946129
 H         -5.5365633748        3.5735760603       -0.6238895852
 H         -6.4933773282        2.3242838585        1.2767847242
 H         -6.0251724564       -0.1196482081        1.4985914242
 H         -2.3919201732       -2.2143296699       -0.8958976894
 H         -3.4565125005       -0.9926935789        2.3377582291
 H         -2.3100692258        0.8810822716        3.4941738836
 H         -0.3566490001        1.9627889444        2.4532631650
 H          1.1299395797        2.2051281564        0.7340919743
 C          0.3989857491        2.0439733559       -1.2652685786
 C         -0.3906424029        3.3170755908       -1.2554197443
 C          1.0464423265        3.3294358140       -1.6806192576
 H          1.2776557365        3.4750944558       -2.7252432332
 H          1.7744047225        3.7620813838       -1.0097668651
 H         -1.1493152886        3.4572363642       -2.0094886252
 H         -0.6390688184        3.7434747438       -0.2956487253
 H          0.1861474998        1.3229346169       -2.0434163346
