  62
        -98.93503736
 C          1.3640141259        0.9867529246       -0.3961782212
 C          2.7149954958        1.3928890571       -0.5334997199
 C          3.7259425511        0.3288098908       -0.4676416592
 C          3.3375461365       -0.9433412658       -0.2695312218
 C          4.2216816983       -2.1622709244       -0.2398136563
 C          5.2374167759       -2.2422147269        0.9158838096
 C          6.6283692193       -1.6936896636        0.5746405044
 H          7.3822838452       -2.3452109079        1.0213047174
 H          6.7713321790       -1.7450677530       -0.5054807171
 C          6.9230156371       -0.2717647269        1.0617721950
 H          7.1448833928       -0.2998103585        2.1311323020
 H          7.8220589534        0.0778949119        0.5495237793
 C          5.8053771621        0.7503603373        0.8531434697
 H          6.2101424960        1.7441272759        1.0553404195
 H          5.0143426918        0.5845379423        1.5884743421
 C          5.1694303667        0.7320255303       -0.5505007401
 H          5.1894498563        1.7354357207       -0.9808348657
 H          5.7177040048        0.0634788603       -1.2128718789
 H          5.3422170343       -3.2978483005        1.1714346064
 H          4.8325338428       -1.7367978008        1.7922158142
 H          4.7520179803       -2.2330140710       -1.1922861024
 H          3.5400603623       -3.0124912983       -0.1730103508
 O          2.0325689971       -1.2873655834       -0.1042101645
 C          1.0139453723       -0.3407633075       -0.1402910154
 O         -0.1158537020       -0.8144007312        0.0667525491
 O          3.0619631898        2.5917754050       -0.7089313125
 C          0.2925343726        2.0592659003       -0.4784045959
 C         -0.7092832241        1.8806154847        0.6326353035
 C         -0.3040405472        2.1068218235        1.9454285577
 C         -1.1810563048        1.9233699265        2.9965905351
 C         -2.4786673737        1.5046851477        2.7609264562
 C         -2.8933842843        1.2788498204        1.4538466124
 C         -2.0135316794        1.4754515853        0.3988795323
 H         -2.3572697710        1.2867072755       -0.6035350347
 N         -4.2081201396        0.8743367899        1.1895556704
 S         -4.6044554246       -0.0659235047       -0.1279620023
 O         -4.5253428271        0.7155689241       -1.3376537819
 O         -5.9223238592       -0.5728883843        0.1985454682
 C         -3.4568108358       -1.4281379089       -0.1883397816
 C         -2.8497915535       -1.7461637210       -1.3838056670
 C         -2.0001677892       -2.8381329604       -1.4352413455
 C         -1.7716124950       -3.5878092337       -0.2939166220
 C         -2.3899549121       -3.2555802694        0.9004814832
 C         -3.2438660615       -2.1677009401        0.9565660589
 H         -3.7403266793       -1.8897897660        1.8724253940
 H         -2.2019983900       -3.8369615086        1.7892107017
 H         -1.0996838033       -4.4310193876       -0.3337219162
 H         -1.5105069759       -3.0922858747       -2.3624472454
 H         -3.0442446805       -1.1294160463       -2.2468791611
 H         -4.7615104558        0.6423999159        2.0004493881
 H         -3.1648098621        1.3536195022        3.5802928481
 H         -0.8520686648        2.1007246259        4.0095242564
 H          0.7146635855        2.4199026360        2.1305844234
 H          0.8328793092        3.0049541965       -0.3052683073
 C         -0.3594714936        2.1753587614       -1.8480595359
 C          0.4201285018        1.9129980351       -3.1005245074
 C         -0.6770033836        0.9786846564       -2.6915064306
 H         -1.5988103888        0.9866828222       -3.2557205201
 H         -0.4111410822        0.0077391279       -2.3029888646
 H          0.2589267879        2.5586449174       -3.9506942728
 H          1.4417604831        1.5792549974       -2.9921606329
 H         -1.0710036596        2.9952306490       -1.8877739778
