  62
        -98.93894583
 C         -2.4620578727       -0.9642239345        0.3788160399
 C         -2.8109530852        0.2073549139        1.1026915207
 C         -4.1854132472        0.6967789468        0.9414557634
 C         -5.0338538867        0.0147351594        0.1511711408
 C         -6.4499920007        0.4163387134       -0.1408099397
 C         -6.5305452524        1.3025263643       -1.3915805775
 C         -5.5344271042        2.4620653500       -1.3915060928
 H         -4.5196887604        2.0609325032       -1.4472581027
 H         -5.7033030587        3.0361961075       -2.3050596629
 C         -5.6439409880        3.3925634634       -0.1755062497
 H         -5.6035650469        4.4274699163       -0.5216578520
 H         -6.6085095494        3.2518767546        0.3135046137
 C         -4.5254000306        3.2244268690        0.8547580731
 H         -3.5546436361        3.2693660251        0.3541404034
 H         -4.5736194536        4.0669418490        1.5499030766
 C         -4.5756157592        1.9394402172        1.6910634889
 H         -5.5677302743        1.8264077017        2.1330842797
 H         -3.8474475414        2.0410422621        2.5012153809
 H         -6.3330259444        0.6820358963       -2.2685969176
 H         -7.5465348241        1.6930162497       -1.4727715842
 H         -7.0354635303       -0.4889855080       -0.3092389234
 H         -6.8555642623        0.9452527194        0.7194633705
 O         -4.6733667945       -1.1091610147       -0.5139493222
 C         -3.3862031459       -1.6218886360       -0.4341286396
 O         -3.2236220475       -2.6461620238       -1.1263061144
 O         -2.0056301948        0.8131432907        1.8612594627
 C         -1.0416522005       -1.4686439674        0.5574014383
 C         -0.1214614868       -1.0582313380       -0.5680206810
 C         -0.3868977044       -1.3928227313       -1.8918249743
 C          0.5049385622       -1.0489036196       -2.8912405053
 C          1.6856988778       -0.3927800983       -2.5907240136
 C          1.9587463193       -0.0523067136       -1.2713146963
 C          1.0487583595       -0.3739940020       -0.2739902627
 H          1.2695699355       -0.0895540994        0.7447344533
 N          3.1417933599        0.6211566382       -0.9289850846
 S          3.8770382957        0.2228113423        0.5396028345
 O          3.8087500830       -1.2044240702        0.7553048123
 O          3.3184576326        1.0522356773        1.5780443892
 C          5.5583161537        0.7179661480        0.2112115844
 C          6.4753001368       -0.2338657937       -0.1932138746
 C          7.7732166606        0.1628610172       -0.4746111088
 C          8.1292098133        1.4974170544       -0.3505010434
 C          7.1978316791        2.4411060268        0.0571142690
 C          5.8986327039        2.0513150659        0.3412160769
 H          5.1436367269        2.7465195121        0.6699034605
 H          7.4792268137        3.4771145919        0.1555447055
 H          9.1398689344        1.8036358990       -0.5697256191
 H          8.5002939512       -0.5688221328       -0.7880916076
 H          6.1550324018       -1.2607343043       -0.2669853016
 H          3.8078125115        0.6612139656       -1.6883445640
 H          2.3880810658       -0.1419533703       -3.3711492012
 H          0.2856205415       -1.3109032608       -3.9154400363
 H         -1.2943259488       -1.9276367554       -2.1261290556
 H         -0.6758116253       -0.9760781013        1.4695431637
 C         -0.9450136955       -2.9706071190        0.7577956839
 C          0.3246160377       -3.5427057931        1.3110995249
 C         -0.9196432810       -3.5300576272        2.1466451910
 H         -1.4247087948       -4.4656505423        2.3346111758
 H         -0.9742973511       -2.8306386804        2.9684657534
 H          0.6723804916       -4.4880680794        0.9233960296
 H          1.1210745669       -2.8553393520        1.5590362555
 H         -1.4636140355       -3.5385762345       -0.0035778884
