  62
        -98.94430867
 C         -1.8516738821       -0.7443129517        0.0443105517
 C         -2.4025981812        0.5505122269        0.1992109053
 C         -3.8211475175        0.5941028832        0.5776638810
 C         -4.4983875320       -0.5517156759        0.7749838198
 C         -5.9402906078       -0.6691306913        1.1890155842
 C         -6.9341629264       -0.5728029664        0.0235377952
 C         -7.1028129637        0.8250936005       -0.5728418953
 H         -7.9778343015        0.7918543176       -1.2250220286
 H         -7.3188611018        1.5358881684        0.2253756183
 C         -5.8981889691        1.3150306160       -1.3885977231
 H         -5.2621726104        0.4650998224       -1.6466617609
 H         -6.2470196644        1.7497495414       -2.3281006916
 C         -5.0465845214        2.3743645255       -0.6886555668
 H         -5.6366392127        3.2821435459       -0.5437127912
 H         -4.2037612284        2.6215097421       -1.3393564827
 C         -4.4826647774        1.9358917702        0.6692794415
 H         -3.7228243148        2.6594020110        0.9752586636
 H         -5.2742700751        1.9213192696        1.4182459581
 H         -6.6227763156       -1.2678455655       -0.7596165496
 H         -7.9059625687       -0.9052019687        0.3957027054
 H         -6.0505390461       -1.6508909446        1.6545831142
 H         -6.1722947915        0.0954514417        1.9309102453
 O         -3.9239225604       -1.7763462520        0.6360535972
 C         -2.5990530520       -1.9034265336        0.2510064018
 O         -2.2057579878       -3.0824917181        0.1400685880
 O         -1.7478060337        1.6128177095        0.0366320478
 C         -0.4016516509       -0.9038241268       -0.3749064175
 C          0.5083675384       -0.1878057896        0.5928819645
 C          0.2964823470       -0.3446986305        1.9608519693
 C          1.0945192565        0.3063671117        2.8801630992
 C          2.1364921921        1.1135090980        2.4571784861
 C          2.3683067538        1.2635413522        1.0964949828
 C          1.5612636591        0.6099283361        0.1734719156
 H          1.7593181087        0.7580211211       -0.8746399808
 N          3.4217296835        2.0698747796        0.6351156270
 S          4.3956880147        1.5005182947       -0.5983818075
 O          5.6361339310        2.2303625530       -0.4494143193
 O          3.7331752638        1.6372421088       -1.8698905013
 C          4.6430687553       -0.2228398213       -0.2090988739
 C          5.3184544109       -0.5363066037        0.9543508691
 C          5.4756246973       -1.8681322099        1.3001740133
 C          4.9545561631       -2.8595135145        0.4824084408
 C          4.2854768374       -2.5285395372       -0.6853019469
 C          4.1253050104       -1.1973169807       -1.0361984780
 H          3.6099311331       -0.8972474433       -1.9337881384
 H          3.8845231316       -3.3015405242       -1.3216499706
 H          5.0721035682       -3.8964508784        0.7549918261
 H          5.9996518157       -2.1298684329        2.2052321718
 H          5.7199582907        0.2590998222        1.5609391314
 H          3.9698101984        2.4996858361        1.3658262601
 H          2.7570525584        1.6300164549        3.1734911184
 H          0.9072995336        0.1835416685        3.9362439875
 H         -0.5170851625       -0.9755077171        2.2927715405
 H         -0.1853421775       -1.9808597851       -0.3170385972
 C         -0.2317962220       -0.4488455292       -1.8099045635
 C          0.7578032623       -1.1234215294       -2.7092383270
 C         -0.7106778504       -1.3400842735       -2.9149581696
 H         -1.1875131523       -0.8887404427       -3.7721851456
 H         -1.1308726537       -2.2948694852       -2.6330209158
 H          1.2970953332       -0.5209832318       -3.4256026225
 H          1.3280933197       -1.9407041997       -2.2945027286
 H         -0.3881982000        0.6174726554       -1.9303182003
