  62
        -98.94415090
 C         -2.0831216734       -1.3491025431       -0.0731315012
 C         -2.4517618209       -0.3372582739       -0.9924887058
 C         -3.8289460087        0.1667948250       -0.8740511935
 C         -4.6483141544       -0.3482976119        0.0596966140
 C         -6.0519826441        0.1125490222        0.3222170820
 C         -6.0836010364        1.2156835652        1.3892673627
 C         -5.0855709586        2.3464284987        1.1390160665
 H         -5.2200337711        3.0810844191        1.9359389891
 H         -4.0699081359        1.9546314973        1.2332633423
 C         -5.2371195906        3.0374461115       -0.2233803515
 H         -6.2212048494        2.8214771920       -0.6410591087
 H         -5.1776771479        4.1179253974       -0.0760233138
 C         -4.1606586870        2.6683341859       -1.2459217316
 H         -3.1714283663        2.7956013268       -0.7981720615
 H         -4.2330264781        3.3687062332       -2.0824572696
 C         -4.2495886420        1.2510720366       -1.8260521044
 H         -5.2598276348        1.0681956995       -2.1975856817
 H         -3.5572711976        1.1946239367       -2.6711440349
 H         -7.0948689037        1.6240184250        1.4339548134
 H         -5.8551125718        0.7667830009        2.3586590205
 H         -6.4895029816        0.4768734709       -0.6051834552
 H         -6.6330294622       -0.7403072031        0.6771033284
 O         -4.2658694230       -1.3305489372        0.9139823856
 C         -2.9803256738       -1.8398903063        0.8811699135
 O         -2.7590099352       -2.7219054635        1.7343542694
 H          0.5762715822        0.1542622553       -1.2174500764
 C          0.8408980451        0.0510953174       -0.1766526424
 C          0.2739320183       -0.9676680252        0.5751756686
 C          0.5996923665       -1.0605834876        1.9242623744
 C          1.4677771856       -0.1537324019        2.5059568899
 C          2.0299137619        0.8624426297        1.7540561138
 C          1.7055263453        0.9660012492        0.4075542971
 N          2.2857059468        1.9891640507       -0.3643189014
 S          3.9516838029        2.1320480766       -0.2740178367
 O          4.3073502150        2.9088114376        0.8877356402
 O          4.3645846343        2.6797279250       -1.5471701109
 C          4.5404119326        0.4578472180       -0.0819466177
 C          4.2526793469       -0.4517839346       -1.0804513448
 C          4.6550267114       -1.7677175397       -0.9239085222
 C          5.3330814538       -2.1506967298        0.2232823725
 C          5.6189107227       -1.2246913759        1.2140470654
 C          5.2168165224        0.0929589520        1.0638804740
 H          5.4130933927        0.8441008352        1.8114843848
 H          6.1479270640       -1.5250617327        2.1040893624
 H          5.6397649775       -3.1776650350        0.3439047372
 H          4.4332473939       -2.4904417580       -1.6925880664
 H          3.7264745148       -0.1225788717       -1.9620797696
 H          1.9664880226        1.9998756436       -1.3221475452
 H          2.7068411757        1.5806516857        2.1881229486
 H          1.7103823585       -0.2390845135        3.5541552552
 H          0.1534821886       -1.8467352246        2.5166467313
 C         -0.6876593150       -1.9552679210       -0.0409020969
 H         -0.7572025236       -2.8177722908        0.6345254356
 C         -0.2286691989       -2.4436930116       -1.4008796364
 C          0.9815009160       -3.3232345513       -1.4838537604
 C         -0.3793183989       -3.8928262837       -1.7477623677
 H         -0.6431745639       -4.1545797999       -2.7616357961
 H         -0.8152590215       -4.5430781754       -1.0032784908
 H          1.4716283836       -3.5845648471       -0.5583325875
 H          1.6527790070       -3.1952454429       -2.3189354914
 H         -0.3884070885       -1.7281107728       -2.1964063020
 O         -1.6894336505        0.1316981552       -1.8792636309
