  62
        -98.94523172
 C          1.5992415699        0.2205886199       -0.6197044602
 C          2.8733894598        0.7407656697       -0.9576891806
 C          3.9211370199        0.6031458603        0.0617354895
 C          3.6136327899        0.0455157011        1.2469718098
 C          4.5890587800       -0.1871654882        2.3635935899
 C          5.2339017100       -1.5763628083        2.2599062208
 C          5.7831540999       -1.8994130792        0.8703679010
 H          6.2415728399       -2.8891847792        0.9242146016
 H          4.9511835199       -1.9679051196        0.1659188011
 C          6.8105279599       -0.8879594596        0.3432921903
 H          7.6496056598       -1.4354695198       -0.0910410494
 H          7.2041785299       -0.2947789390        1.1694813899
 C          6.2788617598        0.0476999397       -0.7440157703
 H          5.7991632398       -0.5403335708       -1.5303742299
 H          7.1309757598        0.5634329594       -1.1946713807
 C          5.2904645499        1.1231128101       -0.2753782009
 H          5.7139982899        1.6691341306        0.5701744887
 H          5.1482681099        1.8262636595       -1.1012762614
 H          6.0379935800       -1.6389684878        2.9954290308
 H          4.4814947200       -2.3264031681        2.5144139413
 H          5.3562332000        0.5843026018        2.3349424594
 H          4.0501974100       -0.1153804676        3.3100465999
 O          2.3737705299       -0.4160853087        1.5478946002
 C          1.3368067499       -0.3502181893        0.6263811202
 O          0.2659502699       -0.8354771490        1.0356103006
 H         -2.0817592102        0.0746608899       -0.6629925999
 C         -1.7462562301        1.0958567299       -0.6656045806
 C         -0.4836348302        1.4087099696       -1.1412416609
 C         -0.0781106401        2.7416653796       -1.1354280617
 C         -0.9189508801        3.7313724399       -0.6656735224
 C         -2.1747251501        3.4113264003       -0.1769835221
 C         -2.5859870701        2.0851714003       -0.1712929212
 N         -3.8599727701        1.7196700606        0.2999971491
 S         -3.9560517800        0.5039117514        1.4608192799
 O         -5.2668868000        0.6874394918        2.0518347998
 O         -2.8411513100        0.5632250119        2.3761934198
 C         -3.9627530201       -1.0117242193        0.5289443309
 C         -2.9231748701       -1.9115556292        0.6575867014
 C         -2.9631102202       -3.0819102597       -0.0854244178
 C         -4.0308271302       -3.3293898602       -0.9346110676
 C         -5.0672160102       -2.4146192303       -1.0483656982
 C         -5.0363246702       -1.2436513498       -0.3087901689
 H         -5.8221754001       -0.5087510498       -0.3606378194
 H         -5.8947173402       -2.6102698407       -1.7110569780
 H         -4.0523505703       -4.2405147506       -1.5119034270
 H         -2.1530837202       -3.7892326696        0.0000746226
 H         -2.0914128001       -1.6698015288        1.3019437612
 H         -4.4339919801        2.5042361508        0.5770280386
 H         -2.8300076300        4.1826787105        0.1996061174
 H         -0.5940944201        4.7611252499       -0.6716288230
 H          0.9084969799        2.9878458693       -1.5031680220
 C          0.4779911398        0.3565550693       -1.6377110402
 H          0.9598579498        0.7445392287       -2.5463889405
 C         -0.1766184602       -0.9705074009       -1.9552654093
 C         -1.0646216303       -1.0870361317       -3.1570761592
 C          0.2781950897       -1.7518202817       -3.1496953588
 H          0.3221560497       -2.8277748117       -3.0740389181
 H          1.0630499797       -1.3251707821       -3.7571403492
 H         -1.1909766203       -0.2067575521       -3.7688030098
 H         -1.9469238003       -1.7046224116       -3.0846330288
 H         -0.4495471502       -1.5325249504       -1.0707923689
 O          3.1216672598        1.2961417189       -2.0616260810
