  62
        -98.94339382
 C         -1.9431391998       -0.8500015917        0.0240722451
 C         -2.2440181819        0.1095857827        1.0182160721
 C         -2.5987311260        1.4463592582        0.5312408980
 C         -2.5733567325        1.7030092826       -0.7893065861
 C         -2.8826302528        3.0243210687       -1.4398715451
 C         -4.3803250065        3.2746405331       -1.6653648443
 C         -5.1867024348        3.5830941519       -0.4032024178
 H         -6.1624378459        3.9492183132       -0.7284133375
 H         -4.7021156662        4.3899620006        0.1473108106
 C         -5.3964425220        2.3784240461        0.5247127532
 H         -5.1902835273        1.4560151038       -0.0230115333
 H         -6.4415867018        2.3380986318        0.8393802227
 C         -4.5429450989        2.3994130586        1.7928361598
 H         -4.7439881716        1.4852967018        2.3572488171
 H         -4.8300279656        3.2498431188        2.4151596827
 C         -3.0319439442        2.4720061671        1.5349336755
 H         -2.5100666101        2.2590601393        2.4715863140
 H         -2.7526489137        3.4715460759        1.2016119411
 H         -4.8070143712        2.4030762856       -2.1668431952
 H         -4.4687136586        4.1259511996       -2.3441163084
 H         -2.4603020688        3.8327528960       -0.8422191919
 H         -2.3831115326        3.0145581661       -2.4110191071
 O         -2.2377951622        0.7631997335       -1.7128964242
 C         -1.9256590253       -0.5340443956       -1.3340487211
 O         -1.6580802812       -1.2953191592       -2.2837952057
 H          0.5533256884       -0.6455216594        0.2471707990
 C          0.7922486509       -1.6548784373       -0.0569672605
 C         -0.1956576162       -2.6308833418       -0.0357739811
 C          0.1406432343       -3.9223691843       -0.4230763830
 C          1.4305056277       -4.2187556208       -0.8281720038
 C          2.4084507014       -3.2426220246       -0.8529230410
 C          2.0813086020       -1.9450257217       -0.4717847614
 N          3.0415375651       -0.9227209154       -0.5348850628
 S          2.8752700202        0.4598867764        0.4089709560
 O          2.6454722006        0.1013418756        1.7915961213
 O          1.9012451699        1.3319518399       -0.2002150133
 C          4.5081288775        1.1527544689        0.2248549459
 C          5.4678192063        0.8839468301        1.1827131259
 C          6.7442815498        1.3979126268        1.0164287620
 C          7.0389420630        2.1657617583       -0.1001467730
 C          6.0651653493        2.4285783910       -1.0523091666
 C          4.7866690230        1.9182007893       -0.8915989518
 H          3.9948712372        2.1021936960       -1.5992038919
 H          6.2963496549        3.0286212954       -1.9175876069
 H          8.0328267742        2.5645455975       -0.2278176852
 H          7.5020469279        1.1980805230        1.7567094491
 H          5.1892559322        0.2908276102        2.0388601082
 H          3.9925764444       -1.2628024636       -0.5583625324
 H          3.4123598168       -3.4741776308       -1.1738587237
 H          1.6776751426       -5.2261494893       -1.1269084019
 H         -0.6089244068       -4.6966287447       -0.4089599200
 C         -1.5773091915       -2.2589318302        0.4459979808
 H         -1.5554252812       -2.2373160697        1.5472666560
 C         -2.6479847902       -3.2348294036       -0.0010705147
 C         -2.9890435783       -4.4311334807        0.8349600793
 C         -3.9425193296       -3.2785292198        0.7525931156
 H         -4.8598368634       -3.4016993528        0.1968170680
 H         -4.0353092492       -2.6275086674        1.6099405745
 H         -2.4440862481       -4.5692214520        1.7566625234
 H         -3.2556078074       -5.3500415943        0.3348125769
 H         -2.6929382789       -3.3305381920       -1.0803019555
 O         -2.2188660582       -0.1408427244        2.2553021322
