  62
        -98.93454656
 C          1.9887825587       -1.2221002182       -0.1146565099
 C          2.7881944900       -0.6000075586       -1.1055832280
 C          3.9714604343        0.1398065306       -0.6366954698
 C          4.2103606047        0.2272114326        0.6828136495
 C          5.3687761125        0.8867218852        1.3887556936
 C          5.8354728973        2.2516035945        0.8658742742
 C          4.7199502759        3.1471305452        0.3073803653
 H          3.7432329437        2.7323765714        0.5637836418
 H          4.7869361934        4.1313368222        0.7749000744
 C          4.8119384923        3.3401865671       -1.2082603418
 H          4.2537107516        4.2389042678       -1.4821060829
 H          5.8568124541        3.5108769836       -1.4763901944
 C          4.2610235681        2.1906058283       -2.0510532237
 H          4.4885755806        2.4028313364       -3.0984578340
 H          3.1717276857        2.1555139828       -1.9620410793
 C          4.8022832283        0.7941688753       -1.7032007353
 H          4.7025484746        0.1656335925       -2.5923681115
 H          5.8525051601        0.8370558086       -1.4251204505
 H          6.5942098466        2.1087506925        0.0977420342
 H          6.3250150253        2.7573938138        1.6998707145
 H          6.2133928193        0.1914795846        1.3767175454
 H          5.0478167849        0.9838486676        2.4288554227
 O          3.3838051231       -0.3382815770        1.6061347423
 C          2.2555126130       -1.0638706370        1.2454524192
 O          1.6028667671       -1.4908515994        2.2147077490
 O          2.5260716085       -0.6626264665       -2.3365672745
 C          0.7677391067       -1.9962174352       -0.5784511812
 C         -0.4472893560       -1.5580298451        0.2000118885
 C         -1.2267869555       -2.4144603788        0.9648755201
 C         -2.3186613786       -1.9301597451        1.6650531717
 C         -2.6598414324       -0.5918798095        1.6146303752
 C         -1.8928253390        0.2724708694        0.8426983484
 C         -0.8057561559       -0.2162482845        0.1354899910
 H         -0.2044474893        0.4601385364       -0.4602363306
 N         -2.2306506036        1.6341202949        0.7796165073
 S         -3.8414068423        2.0555504347        0.6265753629
 O         -3.8299341692        3.3511601926       -0.0161299272
 O         -4.4862171536        1.9985682646        1.9146972736
 C         -4.5483570954        0.8273509618       -0.4573788208
 C         -4.0333445685        0.7138375811       -1.7336480490
 C         -4.5482305371       -0.2536492866       -2.5807616622
 C         -5.5645011539       -1.0874025686       -2.1391728145
 C         -6.0745412219       -0.9573307598       -0.8570016881
 C         -5.5618950771        0.0077410913       -0.0047275406
 H         -5.9279284512        0.1422893635        1.0000554986
 H         -6.8662925192       -1.6052616442       -0.5172221119
 H         -5.9610181328       -1.8416159412       -2.8003473094
 H         -4.1530554244       -0.3553989809       -3.5788159146
 H         -3.2475975142        1.3817988831       -2.0487680164
 H         -1.6444058811        2.1796019405        0.1662248179
 H         -3.4919767091       -0.1977902736        2.1750045607
 H         -2.9077194479       -2.6045630827        2.2675080740
 H         -0.9635383187       -3.4564577452        1.0376702672
 H          0.6294323683       -1.6768065933       -1.6252912751
 C          0.9553638152       -3.5051894808       -0.6139570891
 C          2.3128823924       -4.1092110479       -0.8104067693
 C          1.6063338422       -4.2651235548        0.5011726712
 H          1.2114071170       -5.2379316622        0.7557643021
 H          1.9612292539       -3.7031357529        1.3504343921
 H          2.4032742038       -4.9711637647       -1.4542938586
 H          3.1581036612       -3.4377871971       -0.8586601849
 H          0.1345897999       -4.0006544417       -1.1233844101
