  62
        -98.93543349
 C          2.2236653091        1.4183788610        0.2918314899
 C          1.8837690198        0.3227370509       -0.5393444302
 C          2.9358115904       -0.6963666885       -0.7363048102
 C          4.1150624203       -0.5718723978       -0.1062884001
 C          5.3410221508       -1.4460566171       -0.2022552201
 C          5.1381598618       -2.9656762072       -0.2443784002
 C          3.9641539820       -3.4849988580        0.5978661497
 H          3.5926453215       -2.6918506683        1.2490780297
 H          4.3180632624       -4.2942441678        1.2391556896
 C          2.8134489024       -4.0274192186       -0.2524263005
 H          2.2034365428       -4.6905987590        0.3654910094
 H          3.2289631728       -4.6280181283       -1.0645382205
 C          1.8816396318       -2.9679210691       -0.8380550405
 H          1.3106412515       -2.4961258695       -0.0335684705
 H          1.1701653022       -3.4734225695       -1.4960869406
 C          2.5688348912       -1.8452001086       -1.6319156503
 H          1.8454093310       -1.4500559790       -2.3504510704
 H          3.4303700615       -2.2182482181       -2.1803792503
 H          6.0678303020       -3.4153288267        0.1089304398
 H          5.0077861621       -3.2890130172       -1.2762056802
 H          5.9438180306       -1.1829200468        0.6706257500
 H          5.9069240407       -1.1367008067       -1.0863265600
 O          4.3750028296        0.4673991022        0.7371265300
 C          3.4543557490        1.4751391417        0.9534495200
 O          3.8409755584        2.3530130018        1.7506643401
 O          0.7768677099        0.1852549902       -1.1199652303
 C          1.2870945484        2.5883076004        0.5481948199
 C         -0.1036726114        2.1113723795        0.8792211398
 C         -0.4091842813        1.7111920392        2.1760982297
 C         -1.6784564910        1.2640663285        2.4954897696
 C         -2.6616014109        1.1842023379        1.5245672595
 C         -2.3544590910        1.5517015082        0.2207723495
 C         -1.0896235313        2.0331481190       -0.0903092303
 H         -0.8619204913        2.3120245793       -1.1069016603
 N         -3.3194365608        1.4406926177       -0.7898735006
 S         -4.4949655501        0.2641821070       -0.7153497908
 O         -4.8928944999        0.0459491169       -2.0895267708
 O         -5.5486298305        0.6958898063        0.1723897392
 C         -3.7587370693       -1.2251830326       -0.0555924008
 C         -2.4704714190       -1.5882187818       -0.3944351307
 C         -1.9635770784       -2.7775315515        0.1067408992
 C         -2.7409393580       -3.5797366021        0.9267700991
 C         -4.0325141882       -3.2003904429        1.2570173990
 C         -4.5463198089       -2.0134931831        0.7613750490
 H         -5.5420153891       -1.6746361237        0.9983454190
 H         -4.6379328479       -3.8220971233        1.8967807989
 H         -2.3354165674       -4.5023679718        1.3111025990
 H         -0.9564423182       -3.0660498509       -0.1468017707
 H         -1.8584330494       -0.9534502514       -1.0162434306
 H         -2.9556567008        1.5523598280       -1.7242852005
 H         -3.6576957307        0.8456550073        1.7610957494
 H         -1.9060680009        0.9706321982        3.5089536195
 H          0.3615645687        1.7557942696        2.9332179898
 H          1.6956886180        3.0854340506        1.4420448900
 C          1.2863778278        3.6288889005       -0.5649363300
 C          2.5718537776        4.0523581713       -1.2087090198
 C          1.5518591682        3.2930510608       -2.0003764800
 H          0.9952746279        3.8233594005       -2.7596533900
 H          1.7598321488        2.2647308609       -2.2515739900
 H          2.7206774270        5.0994637714       -1.4248593497
 H          3.4717894679        3.5370801118       -0.9052212898
 H          0.5597739273        4.4139494300       -0.3775056200
