  62
        -98.94590722
 C         -1.5732445209        1.4606978093        0.2016840134
 C         -1.5439153357        0.0728728004        0.4818311339
 C         -2.8545185054       -0.5665277807        0.6689598776
 C         -3.9711168929        0.1785775285        0.5785558425
 C         -5.3686518215       -0.3569847825        0.6920554997
 C         -5.9235715697       -0.7563524153       -0.6824830632
 C         -4.9762695775       -1.6343955556       -1.5003883214
 H         -5.4847972205       -1.8762178434       -2.4363318902
 H         -4.0869697620       -1.0549202361       -1.7586694916
 C         -4.5483597015       -2.9317327059       -0.8001842903
 H         -4.6191997434       -3.7541113584       -1.5152575804
 H         -5.2350492613       -3.1542612227        0.0173780840
 C         -3.1133605707       -2.9232228594       -0.2695779681
 H         -2.4310334350       -2.6071600150       -1.0625981785
 H         -2.8477088735       -3.9476718396        0.0037781269
 C         -2.8624722406       -2.0407309746        0.9594612748
 H         -3.5899905247       -2.2777089228        1.7383149326
 H         -1.8615769791       -2.2720180568        1.3351057818
 H         -6.8703935525       -1.2789622425       -0.5341258987
 H         -6.1244915187        0.1539177246       -1.2524256694
 H         -5.3694521027       -1.2166972496        1.3592471282
 H         -6.0031045754        0.4223802187        1.1175100838
 O         -3.9561111644        1.5121567729        0.3197632086
 C         -2.7610587464        2.1840866894        0.1145418753
 O         -2.8882428976        3.3999790849       -0.1373207434
 H          2.3713787379        1.3568465856        0.0348398749
 C          1.8609146432        1.1278991507       -0.8844972850
 C          0.5425048240        1.5070935308       -1.0755699374
 C         -0.0612978095        1.2262033281       -2.2992136307
 C          0.6305178937        0.5617312504       -3.2924614947
 C          1.9358250196        0.1505178486       -3.0838356904
 C          2.5516157892        0.4388040758       -1.8726752930
 N          3.8757171926        0.0489737313       -1.6348496807
 S          4.3978003230       -0.3289605705       -0.0952792636
 O          4.6163352688        0.8781688527        0.6629737979
 O          5.5737745810       -1.1452771690       -0.3167155265
 C          3.1229624081       -1.3154588203        0.6671715181
 C          2.6483132602       -0.9625928879        1.9127035756
 C          1.6884724598       -1.7578684004        2.5153847973
 C          1.2201637227       -2.8858931481        1.8630184549
 C          1.7050588825       -3.2265534146        0.6109143942
 C          2.6677103421       -2.4372819759        0.0053360194
 H          3.0665305153       -2.6816346248       -0.9661143608
 H          1.3295898966       -4.1002718608        0.1025161791
 H          0.4667124883       -3.4997634039        2.3316880766
 H          1.3008970294       -1.4886903949        3.4854955258
 H          3.0338669772       -0.0711445058        2.3827842193
 H          4.2819887826       -0.5536461296       -2.3345102971
 H          2.4730706907       -0.3841922342       -3.8521147363
 H          0.1472172011        0.3494607021       -4.2343926116
 H         -1.0877361784        1.5308001192       -2.4556322287
 C         -0.2646402421        2.2012173236       -0.0064534867
 H         -0.5284912895        3.2073133630       -0.3635405878
 C          0.4690833498        2.3243665685        1.3127355809
 C          1.4259127408        3.4536227895        1.5444205579
 C          0.1058541551        3.4312337934        2.2539938967
 H          0.0915453461        3.2243186273        3.3135717176
 H         -0.6601747392        4.1228514230        1.9341331239
 H          1.5594074195        4.1670484628        0.7450990247
 H          2.3249638827        3.2618038969        2.1113346965
 H          0.7052476361        1.3581813397        1.7450328166
 O         -0.4834844641       -0.5957400568        0.5689432198
