  62
        -98.94520039
 C          2.4509084400        1.1863041752       -0.0678319741
 C          3.5512172094        0.8536603008        0.7622217652
 C          4.4755325706       -0.1536908489        0.2325092199
 C          4.2454828781       -0.6997451900       -0.9754258118
 C          5.1079507838       -1.7237635625       -1.6622175246
 C          4.8287559981       -3.1692013326       -1.2279367162
 C          5.3182752113       -3.5334348037        0.1742904914
 H          6.3686256261       -3.2579510805        0.2738726264
 H          5.2563459927       -4.6199086908        0.2622565829
 C          4.5068518484       -2.8993438828        1.3127654696
 H          4.2848111253       -3.6572490957        2.0674135349
 H          3.5483116520       -2.5462462910        0.9244883394
 C          5.2099620939       -1.7434474443        2.0244610520
 H          6.1033284782       -2.1146364713        2.5313705216
 H          4.5318229570       -1.3460862751        2.7837665873
 C          5.6173453072       -0.5876440402        1.1014167650
 H          6.4717475395       -0.8771673999        0.4902199241
 H          5.9029578525        0.2637437687        1.7239077628
 H          5.3261197466       -3.8261096416       -1.9453440906
 H          3.7540447550       -3.3537463514       -1.2987690963
 H          6.1593764539       -1.4887379004       -1.4941288518
 H          4.8986913431       -1.6393768439       -2.7308113635
 O          3.1786561214       -0.3532732951       -1.7432668581
 C          2.2475143203        0.5794319114       -1.3070902979
 O          1.3173640412        0.7783008081       -2.1132770526
 O          3.7531694312        1.3795559086        1.8884876904
 C          1.4522373558        2.2103389282        0.4467709894
 C          0.1509681862        1.4999079004        0.7236898572
 C          0.0185777563        0.7623521969        1.8975205198
 C         -1.1340408414        0.0447485270        2.1537456965
 C         -2.1758401771        0.0384073323        1.2417309639
 C         -2.0454253244        0.7545614990        0.0603091781
 C         -0.8950509752        1.4937982572       -0.1848591542
 H         -0.8040831987        2.0363672080       -1.1123679610
 N         -3.0913881462        0.7486112749       -0.8778400634
 S         -3.8205263622       -0.7139424133       -1.2582479642
 O         -2.9180503107       -1.8299626736       -1.0925895842
 O         -4.3766969193       -0.5256127403       -2.5807045630
 C         -5.1575032792       -0.8282826149       -0.0854058427
 C         -6.0159440523        0.2475520340        0.0313763478
 C         -7.0672695600        0.1704329783        0.9306772933
 C         -7.2442777961       -0.9756871723        1.6914963964
 C         -6.3764190458       -2.0487379663        1.5600006125
 C         -5.3218565727       -1.9774169906        0.6628220041
 H         -4.6183008083       -2.7843027355        0.5315136608
 H         -6.5152096886       -2.9392980084        2.1517551150
 H         -8.0629248627       -1.0329152744        2.3913643851
 H         -7.7438399737        1.0031616789        1.0359780570
 H         -5.8450142050        1.1184745090       -0.5788910232
 H         -2.8774049884        1.2670282452       -1.7179148424
 H         -3.0727286854       -0.5291261792        1.4287288262
 H         -1.2239875704       -0.5187179943        3.0700624393
 H          0.8401976738        0.7503705816        2.6002529908
 H          1.8628724895        2.5574368515        1.4045712364
 C          1.3230150147        3.3961329354       -0.4854491989
 C          0.6717521039        4.6515237336        0.0105267686
 C          2.1501103828        4.6191439981       -0.2313343920
 H          2.5472711932        5.1562121504       -1.0796719495
 H          2.8091678194        4.6069852739        0.6242275638
 H          0.0516326562        5.2150340137       -0.6697224210
 H          0.3253587669        4.6599974820        1.0327663985
 H          1.1653353074        3.1148459201       -1.5197967319
