  62
        -98.94564216
 C          1.0901442076        1.4220585109        0.7692666174
 C          2.0257294812        1.4431087372       -0.2927211872
 C          3.0314207712        0.3707545691       -0.2793145031
 C          2.9865255062       -0.5663292608        0.6850769076
 C          3.9253715216       -1.7330483589        0.7869091300
 C          3.3900119864       -2.9599445949        0.0360024486
 C          2.9042357708       -2.6590701131       -1.3813320407
 H          2.5719437527       -3.6029764576       -1.8183145167
 H          2.0322824825       -2.0028236693       -1.3281346987
 C          3.9631555071       -2.0255763913       -2.2942719069
 H          4.9581158284       -2.1928289151       -1.8797925889
 H          3.9299861884       -2.5212157931       -3.2668185372
 C          3.7681650173       -0.5304227593       -2.5503128258
 H          4.4297846961       -0.2361632298       -3.3695479939
 H          2.7417238804       -0.3427899427       -2.8757876357
 C          4.0721495205        0.3918093616       -1.3632979383
 H          4.0914828196        1.4191898375       -1.7386148047
 H          5.0579509695        0.1562107572       -0.9569149699
 H          4.1801310570       -3.7121345156       -0.0004370774
 H          2.5517159368       -3.3684976037        0.6015539036
 H          4.0423401319       -1.9867316587        1.8417777844
 H          4.8946620267       -1.4428238678        0.3854171629
 O          2.0495285064       -0.5733466288        1.6682089845
 C          1.0831028862        0.4163640919        1.7364166788
 O          0.2876109254        0.2945228103        2.6896080349
 O          2.0328628102        2.3128450669       -1.2024051396
 C         -0.0040241151        2.4739770645        0.8449342687
 C         -0.9244298051        2.2869184243       -0.3372430666
 C         -1.1690024742        3.2589748770       -1.2970025417
 C         -2.0026286879        2.9850302619       -2.3681979266
 C         -2.6202199859        1.7543180067       -2.4919353710
 C         -2.3891563378        0.7769285367       -1.5295554719
 C         -1.5404195416        1.0478890812       -0.4700634630
 H         -1.3563395415        0.2870588045        0.2753269075
 N         -2.9863475311       -0.4899653852       -1.6199263099
 S         -3.5604017154       -1.2199488348       -0.2259515254
 O         -4.5291808306       -2.1857257667       -0.7024516803
 O         -4.0571867048       -0.2426077699        0.7145330385
 C         -2.1734440958       -2.1030339575        0.4530123652
 C         -1.9050497313       -2.0067698217        1.8032619666
 C         -0.8648112016       -2.7507710812        2.3358463987
 C         -0.1190990460       -3.5777885744        1.5118587351
 C         -0.3975533079       -3.6603303964        0.1554183744
 C         -1.4357814899       -2.9182533827       -0.3827748221
 H         -1.6842399643       -2.9590535555       -1.4303774506
 H          0.1901340116       -4.3012346711       -0.4823733865
 H          0.6832743485       -4.1625085422        1.9347291094
 H         -0.6366620405       -2.6692871696        3.3861529993
 H         -2.4991085655       -1.3419049725        2.4100255433
 H         -3.6267574324       -0.6047556776       -2.3923217547
 H         -3.2740745759        1.5460973653       -3.3252997203
 H         -2.1788496145        3.7448122949       -3.1145803999
 H         -0.6999089232        4.2252455222       -1.2143592809
 H         -0.5807672625        2.2484546878        1.7539420348
 C          0.5741540523        3.8667012817        0.9666956842
 C         -0.2564333978        4.9674851857        1.5526540977
 C          0.8950294638        4.4030439271        2.3279690860
 H          1.7821364175        5.0065331429        2.4484042846
 H          0.6799467542        3.7694293892        3.1763832747
 H         -0.1599900546        5.9618190931        1.1437157741
 H         -1.2561842351        4.7194921240        1.8767735625
 H          1.2555006695        4.1120972811        0.1611192778
