  62
        -98.94139634
 C          1.7966254772        0.9978937015        0.7082916385
 C          2.0102968757       -0.3940720341        0.8967626511
 C          3.3804554812       -0.8815600054        0.6986656282
 C          4.3468921272       -0.0030036387        0.3769725399
 C          5.7789130319       -0.3604823637        0.1056203535
 C          6.0095784189       -0.6399375724       -1.3859845991
 C          4.9922866794       -1.6033623109       -1.9974532649
 H          4.0068724811       -1.1315266825       -1.9922962026
 H          5.2719534728       -1.7504919516       -3.0429448054
 C          4.9053901287       -2.9653928350       -1.2945380165
 H          5.7966570893       -3.1259068689       -0.6868312570
 H          4.8857319264       -3.7499342451       -2.0539412059
 C          3.6594053564       -3.1538368187       -0.4268780563
 H          2.7680658528       -2.8993351308       -1.0058547742
 H          3.5873880308       -4.2120351510       -0.1621246331
 C          3.6291986687       -2.3523777829        0.8806964681
 H          2.7935289673       -2.7248647532        1.4800647811
 H          4.5537011366       -2.5206280478        1.4368692817
 H          7.0163790884       -1.0430151809       -1.5100659053
 H          5.9533744847        0.3067557973       -1.9283524486
 H          6.4062490660        0.4790111095        0.4100422252
 H          6.0472528610       -1.2345090834        0.6959275581
 O          4.1111657976        1.3217675957        0.2159308701
 C          2.8372143795        1.8565287143        0.3531496996
 O          2.7942103382        3.0836816357        0.1352164999
 H         -1.8872226259        0.2130620227        0.2171248674
 C         -1.5489303344        0.8747076230       -0.5654844162
 C         -0.3796737742        1.6001892328       -0.3915277523
 C          0.0522085417        2.4339960538       -1.4174614435
 C         -0.6773268443        2.5333094922       -2.5878978453
 C         -1.8557353832        1.8253099513       -2.7490658851
 C         -2.2967988361        0.9913066380       -1.7287588787
 N         -3.4790379601        0.2516042347       -1.8626064147
 S         -4.4750694322        0.0057794424       -0.5406079479
 O         -5.7670814419       -0.3002775351       -1.1167089081
 O         -4.4356551078        1.1245993362        0.3715454773
 C         -3.8303049163       -1.4570754573        0.2408254484
 C         -3.5778272520       -2.5653119901       -0.5428704686
 C         -3.0968828006       -3.7153919369        0.0613308884
 C         -2.8813796112       -3.7394029210        1.4309013430
 C         -3.1441750057       -2.6198979997        2.2045103029
 C         -3.6239345306       -1.4659803152        1.6057678871
 H         -3.8332931037       -0.5699908526        2.1693353260
 H         -2.9726404728       -2.6390808147        3.2689311743
 H         -2.5035494400       -4.6346298162        1.8990019263
 H         -2.8886927892       -4.5884278941       -0.5360722345
 H         -3.7577338912       -2.5096426615       -1.6035808549
 H         -4.0039106586        0.4298718239       -2.7061708385
 H         -2.4301720181        1.9160816055       -3.6585706786
 H         -0.3313054048        3.1798771059       -3.3803910294
 H          0.9627770703        2.9986399990       -1.2878790737
 C          0.3748561077        1.4895465012        0.9119941033
 H         -0.1152997555        0.7051716059        1.5051167433
 C          0.2717187356        2.7963554546        1.6758630859
 C         -1.0577707115        3.1909575409        2.2440905324
 C          0.0529548495        2.7680035366        3.1571765716
 H          0.5364731229        3.5193681221        3.7633627461
 H         -0.0187915712        1.8015110167        3.6344146269
 H         -1.8893428757        2.5176416187        2.0934735834
 H         -1.3355528016        4.2337666897        2.2222724147
 H          0.9012338080        3.5805906003        1.2765692594
 O          1.0917257523       -1.1916546373        1.2250377199
