  62
        -98.94591985
 C          1.2951654352        1.4224564387        0.6230350195
 C          2.3709934960        1.3146681306       -0.2928637471
 C          3.3676507948        0.2734990631        0.0060621296
 C          3.2149841388       -0.5023624583        1.0934005293
 C          4.1331406846       -1.6231755094        1.4863491645
 C          3.6924239765       -2.9630445737        0.8795840238
 C          3.3797658464       -2.8948105083       -0.6150645560
 H          3.1042659644       -3.9021997681       -0.9341040093
 H          2.5093691178       -2.2537586950       -0.7716407701
 C          4.5405281262       -2.3893749629       -1.4828042758
 H          5.4785903216       -2.4696836218       -0.9321234113
 H          4.6256819988       -3.0310420798       -2.3622447032
 C          4.3736612773       -0.9567079106       -1.9917988044
 H          3.3935324767       -0.8453278362       -2.4620791421
 H          5.1287253098       -0.7799332727       -2.7623818440
 C          4.5305369612        0.1460710277       -0.9375314202
 H          5.4602548909       -0.0027444825       -0.3844831558
 H          4.5939998904        1.1025368261       -1.4643985039
 H          4.4839128995       -3.6942354691        1.0541260275
 H          2.7978920906       -3.3062947056        1.4045092512
 H          5.1436631105       -1.3829066243        1.1607598065
 H          4.1246060578       -1.7067930104        2.5746550979
 O          2.1710225265       -0.3686898576        1.9519932289
 C          1.1962983674        0.5920669850        1.7425815433
 O          0.3051458140        0.6093650812        2.6165260368
 H         -2.2136874208        1.2561908846        0.8332002770
 C         -1.9779563009        1.3543718750       -0.2159451718
 C         -0.7898508350        1.9578334122       -0.6058262487
 C         -0.5151161520        2.0784124724       -1.9641341649
 C         -1.4140496745        1.6062836726       -2.9028432982
 C         -2.5927779190        0.9965320271       -2.5108939423
 C         -2.8749740263        0.8667587956       -1.1563229975
 N         -4.0675458413        0.2596712888       -0.7290539672
 S         -4.0388586188       -0.8120935060        0.5556612563
 O         -5.2623382814       -1.5713600647        0.4103147491
 O         -3.8838702242       -0.0966989050        1.7954337261
 C         -2.6363418674       -1.8650704059        0.2359244746
 C         -2.7650699258       -2.8182745423       -0.7567053644
 C         -1.6788857754       -3.6196164392       -1.0650533363
 C         -0.4831276213       -3.4521822274       -0.3822777145
 C         -0.3725276121       -2.4938465522        0.6119052114
 C         -1.4563259242       -1.6890242738        0.9274122290
 H         -1.3856458629       -0.9366507588        1.6976104843
 H          0.5522173072       -2.3545457058        1.1497864875
 H          0.3664714233       -4.0719867869       -0.6220729183
 H         -1.7641076962       -4.3695804812       -1.8347446728
 H         -3.7152848595       -2.9268687740       -1.2541193474
 H         -4.6458692529       -0.0918314064       -1.4786787274
 H         -3.2920402987        0.6266672503       -3.2451629558
 H         -1.1908166898        1.7078722905       -3.9540257943
 H          0.4167183905        2.5214312556       -2.2764426392
 C          0.1736472017        2.4373978587        0.4540767909
 H         -0.3659177343        2.4441800980        1.4111142720
 C          0.6787070871        3.8404782878        0.1826139276
 C         -0.2508272510        4.9955446957        0.3960819434
 C          0.8973688360        4.7735158290        1.3333880936
 H          1.7359328533        5.4525911626        1.2940244496
 H          0.6818122093        4.4045798344        2.3261186238
 H         -1.2460332609        4.7756009327        0.7535848851
 H         -0.2032089922        5.8294218920       -0.2872004332
 H          1.3782552529        3.9005498605       -0.6399960713
 O          2.5185393329        2.0436377229       -1.3074262289
