  62
        -98.94078050
 C         -1.8537462036       -0.7592928827        0.5091133210
 C         -2.3104372022        0.0514662960       -0.5597307169
 C         -3.4440886864        0.9384873767       -0.2491521669
 C         -3.9254309937        0.9884160481        1.0052695908
 C         -5.1115381499        1.7980122182        1.4403498851
 C         -6.4086477176        0.9843151205        1.3287005382
 C         -6.5845642871        0.2823275370       -0.0179545285
 H         -5.8128602552       -0.4834420684       -0.1252163556
 H         -7.5467421988       -0.2336676053        0.0080971439
 C         -6.5395376185        1.2188226564       -1.2334941578
 H         -6.7076598982        2.2481954880       -0.9147309145
 H         -7.3535495617        0.9523261356       -1.9108684891
 C         -5.2440399548        1.1449668024       -2.0440247610
 H         -5.4020928784        1.6747969984       -2.9871267270
 H         -5.0243565355        0.1024887022       -2.2883446593
 C         -4.0048587347        1.7565529157       -1.3780140874
 H         -3.2127030778        1.8096456713       -2.1309883152
 H         -4.2292028805        2.7721012717       -1.0451309948
 H         -6.4092872547        0.2244030917        2.1137480990
 H         -7.2521282690        1.6543472490        1.5046670613
 H         -4.9652826742        2.0915080289        2.4813443365
 H         -5.1782712279        2.6944464746        0.8268084245
 O         -3.4015499429        0.2614809998        2.0255315099
 C         -2.3632073761       -0.6286673361        1.8033874851
 O         -1.9751240670       -1.2260374638        2.8277151844
 H          0.6033156908        0.4067869193        1.0694065492
 C          0.9947561557        0.0248383558        0.1338168697
 C          0.4172942022       -1.1097872285       -0.4247194880
 C          0.9292923492       -1.5923917214       -1.6210534855
 C          1.9727917752       -0.9362254688       -2.2512905452
 C          2.5315026848        0.2029711126       -1.7032717284
 C          2.0348859627        0.6868954086       -0.4990212725
 N          2.6018526143        1.8380491147        0.0730831341
 S          4.2680723119        1.9807630671        0.0813112327
 O          4.5683953792        2.8267067273        1.2154488924
 O          4.7226822678        2.4628770666       -1.1991248498
 C          4.8811310890        0.3275195941        0.3551672134
 C          4.5198103317       -0.3138587407        1.5235003163
 C          4.9595549361       -1.6093296175        1.7407267618
 C          5.7491029872       -2.2385950120        0.7901519447
 C          6.1077542877       -1.5794097437       -0.3751242832
 C          5.6694293360       -0.2838143923       -0.5981839227
 H          5.9232172692        0.2647382827       -1.4905354167
 H          6.7234013117       -2.0703183150       -1.1113943059
 H          6.0867484452       -3.2485116088        0.9612347256
 H          4.6818576985       -2.1229839225        2.6472397242
 H          3.9092768212        0.2047512492        2.2455368946
 H          2.2033217514        2.0975925064        0.9627607979
 H          3.3289454772        0.7361918253       -2.1948083164
 H          2.3516568480       -1.3136183083       -3.1887314667
 H          0.4927409842       -2.4651708209       -2.0772450912
 C         -0.7212263323       -1.7556332350        0.3265911467
 H         -0.3666184123       -1.9681861595        1.3487803046
 C         -1.1574645829       -3.0888490720       -0.2630374054
 C         -2.5533769062       -3.5985318434       -0.0659544755
 C         -2.0923070590       -3.1851388026       -1.4296454351
 H         -1.9161953435       -3.9570192516       -2.1646791320
 H         -2.4678116371       -2.2644800138       -1.8465936965
 H         -3.2509218955       -2.9592471819        0.4562571529
 H         -2.6921354129       -4.6499493593        0.1365677424
 H         -0.3669163421       -3.8308834453       -0.2104540731
 O         -1.8122054017        0.0438246753       -1.7139208616
