  62
        -98.94791770
 C         -1.1605568877       -1.1193277444        0.0320455521
 C         -1.5963373418       -0.0892659907        0.8980461822
 C         -2.5476018239        0.8730987457        0.3282996922
 C         -2.9141519273        0.7496460378       -0.9604164940
 C         -3.9023995643        1.6379024616       -1.6581182284
 C         -5.3292323471        1.0828252704       -1.5455109724
 C         -5.7311017138        0.6986115737       -0.1215357738
 H         -6.7650843879        0.3492172109       -0.1586923849
 H         -5.1176547245       -0.1439583790        0.2054103377
 C         -5.6122199035        1.8381749296        0.8999866045
 H         -5.5651683459        2.7966003278        0.3816618823
 H         -6.5111678768        1.8482585950        1.5198748504
 C         -4.4183179963        1.7165999658        1.8484000164
 H         -4.4097855878        0.7212315491        2.2993768042
 H         -4.5504603617        2.4417450655        2.6557518653
 C         -3.0405741696        1.9741867503        1.2248876335
 H         -3.0466295383        2.9284434400        0.6931119622
 H         -2.3149206366        2.0432029998        2.0410612341
 H         -6.0219288016        1.8324806437       -1.9324024594
 H         -5.4040731390        0.1933456261       -2.1753493189
 H         -3.8522087427        2.6359766260       -1.2265029845
 H         -3.6239693134        1.6970991460       -2.7119257808
 O         -2.4556013114       -0.2377484066       -1.7708157620
 C         -1.5655866196       -1.1932877293       -1.3006390353
 O         -1.2211801968       -2.0365066721       -2.1507068371
 H          0.9142281274        0.0195563923       -0.6290144836
 C          1.5562837911       -0.8423528968       -0.7195308803
 C          1.1415897519       -2.0634272897       -0.2077868440
 C          1.9739860467       -3.1647764123       -0.3731993784
 C          3.1780256361       -3.0382713884       -1.0435742009
 C          3.5886617212       -1.8167071175       -1.5460459955
 C          2.7648948953       -0.7087565193       -1.3839759564
 N          3.1341081013        0.5474840636       -1.8830460287
 S          2.6336764173        1.9469382312       -1.1249872855
 O          1.2386632884        2.1995670893       -1.3903384258
 O          3.5573140858        2.9536314389       -1.6045448516
 C          2.9062243221        1.6578695532        0.6136898755
 C          4.2083431501        1.4817028573        1.0413624462
 C          4.4444107352        1.2113158377        2.3788933197
 C          3.3793070866        1.1136127372        3.2622430543
 C          2.0794792377        1.2998701395        2.8195070946
 C          1.8391136070        1.5783345794        1.4834482714
 H          0.8359819619        1.7206555630        1.1125947722
 H          1.2411020368        1.2148892883        3.4925851825
 H          3.5618219554        0.8928055581        4.3020940786
 H          5.4547871749        1.0718649238        2.7280026364
 H          5.0107647048        1.5711264050        0.3273527531
 H          4.0730087469        0.6147722007       -2.2454343734
 H          4.5279694462       -1.7203430025       -2.0681519744
 H          3.8101627593       -3.9035938395       -1.1721554724
 H          1.6750918272       -4.1238287794        0.0171480800
 C         -0.1635970114       -2.1370412169        0.5489552344
 H          0.0389168224       -1.8423014680        1.5907579100
 C         -0.7701314466       -3.5265922123        0.5469474817
 C         -0.4327060234       -4.5101146408        1.6265421930
 C         -1.7872833088       -3.8712266021        1.5924291077
 H         -2.6386141036       -4.4707092892        1.3068124271
 H         -2.0147322242       -3.1137965341        2.3285209173
 H         -0.3551469772       -5.5547432709        1.3649724251
 H          0.2531564239       -4.1933417656        2.3976312647
 H         -0.9379015626       -3.9022115524       -0.4561851427
 O         -1.2020910774        0.0241801491        2.0905870936
