  62
        -98.94136365
 C         -1.7985132093       -1.3695809401        0.6019255943
 C         -1.7948358733       -0.0659380810        1.1618210626
 C         -3.0268822873        0.7177100408        1.0100079005
 C         -4.0839107054        0.1595397337        0.3928954128
 C         -5.3965920347        0.8446498854        0.1470826654
 C         -5.4168100114        1.5437742688       -1.2191449543
 C         -4.1927898799        2.4209844845       -1.4809308895
 H         -3.3081114322        1.7840815087       -1.5538072894
 H         -4.3321693740        2.8903515945       -2.4571178893
 C         -3.9503843798        3.5053029288       -0.4216915655
 H         -3.7159838382        4.4432873370       -0.9292305379
 H         -4.8600620459        3.6692688929        0.1569766706
 C         -2.7883673747        3.2104583241        0.5287029788
 H         -2.5530108976        4.1288966942        1.0732411594
 H         -1.9071203252        2.9354922990       -0.0563535107
 C         -3.0388608301        2.1121020484        1.5704313905
 H         -2.2245846759        2.1477093640        2.3005586422
 H         -3.9758507903        2.3092651462        2.0955291761
 H         -5.4638359933        0.7795770818       -1.9983996120
 H         -6.3225735703        2.1496519972       -1.2828681636
 H         -6.1859223480        0.0912688556        0.1710894333
 H         -5.5755073124        1.5679965644        0.9404020846
 O         -4.0584967801       -1.0952477986       -0.1187714097
 C         -2.9127157254       -1.8839845242       -0.0628150786
 O         -3.0413143986       -2.9848700596       -0.6267734438
 H          2.0986000955       -1.4669877599        0.9465501302
 C          1.7563027376       -1.4791929853       -0.0769213202
 C          0.4435205301       -1.8169026422       -0.3681011488
 C          0.0300168446       -1.8235673591       -1.6969677393
 C          0.9180397349       -1.5014150682       -2.7064135269
 C          2.2247266122       -1.1522762497       -2.4110838760
 C          2.6473118478       -1.1392792087       -1.0870530037
 N          3.9723634619       -0.8096745352       -0.7631105411
 S          4.3184720944        0.2210433853        0.5104316669
 O          5.7194653491        0.5362098248        0.3382867089
 O          3.9553215747       -0.4005276508        1.7574783303
 C          3.3357463522        1.6769645306        0.2067856606
 C          3.8749668355        2.6624587403       -0.5990944310
 C          3.1163967223        3.7834432392       -0.8912856619
 C          1.8321421370        3.8995251598       -0.3793731924
 C          1.3076821390        2.9026749176        0.4271900149
 C          2.0607587806        1.7773678588        0.7241409104
 H          1.6535282115        0.9970803789        1.3463614664
 H          0.3115346447        2.9755684347        0.8338348086
 H          1.2384343415        4.7710139747       -0.6067207109
 H          3.5255881372        4.5614074327       -1.5156189197
 H          4.8815570585        2.5387311783       -0.9648278366
 H          4.5516756900       -0.5900335409       -1.5606535343
 H          2.9145799546       -0.8958017642       -3.2005496282
 H          0.5883200025       -1.5157118061       -3.7343193667
 H         -0.9909905562       -2.0918979881       -1.9261851260
 C         -0.5112160216       -2.1612402107        0.7468424903
 H         -0.0578118538       -1.7982961301        1.6841538580
 C         -0.7199177890       -3.6600961479        0.9030822448
 C         -0.3508091303       -4.6596528665       -0.1473156786
 C          0.4643081820       -4.5588535795        1.1048597938
 H          0.3950348437       -5.3499013829        1.8361539906
 H          1.4450609760       -4.1122544639        1.0296790489
 H         -1.0038460361       -5.5086839840       -0.2786741567
 H          0.0818857526       -4.2990599370       -1.0670786637
 H         -1.6057530434       -3.8864750560        1.4874272479
 O         -0.8016928857        0.4156208751        1.7702170160
