  62
        -98.93423147
 C         -2.2027456467       -0.7857489479        0.0896429862
 C         -3.3958598368       -0.9755418052        0.8349272937
 C         -4.3701730628        0.1223993063        0.8058609122
 C         -4.0725832132        1.2540437657        0.1436854429
 C         -4.9187183327        2.4967965277        0.0577844868
 C         -6.2639436636        2.3555363846       -0.6806907080
 C         -7.4584444745        2.0523006145        0.2324722009
 H         -7.2302448029        2.4076332982        1.2380846262
 H         -8.3194914913        2.6269239514       -0.1147942719
 C         -7.8964922289        0.5858152336        0.2951904300
 H         -8.4671630117        0.3452610099       -0.6047214303
 H         -8.5676372767        0.4738525413        1.1494026755
 C         -6.7713913725       -0.4425593010        0.4119016974
 H         -6.2760982458       -0.5549877722       -0.5556884353
 H         -7.2177236856       -1.4115832995        0.6439582446
 C         -5.6987385571       -0.1059192932        1.4659781572
 H         -5.9919434500        0.7655892774        2.0492939966
 H         -5.5675983680       -0.9488630888        2.1473685621
 H         -6.4505933934        3.3075738035       -1.1802068270
 H         -6.1746284250        1.5965525986       -1.4575918721
 H         -5.0981461272        2.8680565746        1.0694244713
 H         -4.3014134531        3.2325668642       -0.4619810450
 O         -2.8952783860        1.4193481814       -0.5167127008
 C         -1.9393078650        0.4113975992       -0.5787890070
 O         -0.9362595146        0.7223393875       -1.2485262068
 H          0.9252255501       -1.2918626306       -1.5081131320
 C          1.1365789761       -1.1163706339       -0.4648252197
 C          0.1672988119       -1.3912759933        0.4856913024
 C          0.4463871445       -1.1205276539        1.8220442313
 C          1.6688820246       -0.5944197686        2.1938599126
 C          2.6346347229       -0.3188955532        1.2412300992
 C          2.3569404018       -0.5643251195       -0.0962947166
 N          3.3234584913       -0.2845606781       -1.0749065082
 S          4.2497567040        1.1069587006       -0.9539448139
 O          3.5506806801        2.1798927601       -0.2858827561
 O          4.6996238090        1.3734939636       -2.3032663503
 C          5.6476415273        0.5879479680        0.0232269080
 C          6.3254369941       -0.5527967739       -0.3603238158
 C          7.4202364507       -0.9633014113        0.3832391184
 C          7.8199439956       -0.2287661209        1.4897032651
 C          7.1323141058        0.9167469709        1.8594986957
 C          6.0353945781        1.3318976187        1.1203368235
 H          5.4671747251        2.2129292600        1.3740953999
 H          7.4443043118        1.4875585556        2.7193689266
 H          8.6723667216       -0.5504422885        2.0669375415
 H          7.9572802058       -1.8537195061        0.0985589334
 H          5.9852992250       -1.0939577659       -1.2272348860
 H          2.9898120400       -0.4141094429       -2.0191182855
 H          3.5840368258        0.1058765831        1.5229941363
 H          1.8734921822       -0.3926322398        3.2343877235
 H         -0.3135749060       -1.3186630767        2.5653546202
 C         -1.1916033426       -1.9197726981        0.1073698831
 H         -1.5399615333       -2.5761391933        0.9210827206
 C         -1.1681153698       -2.7725117639       -1.1525589647
 C         -2.4453899612       -3.1225538513       -1.8542688287
 C         -1.4441577763       -2.2302261813       -2.5214973092
 H         -0.8767962124       -2.6291253835       -3.3502260148
 H         -1.6688336523       -1.1794122852       -2.6164822440
 H         -3.3547624058       -2.6766046021       -1.4782828203
 H         -2.5723454465       -4.1272450493       -2.2280385503
 H         -0.4223068997       -3.5590971519       -1.0869572281
 O         -3.6335785611       -2.0167508656        1.5025217315
