  62
        -98.94422773
 C         -1.9503929450       -0.8003528945        0.4688225852
 C         -2.2464569289        0.3359217438       -0.3227092040
 C         -3.5783462921        0.9231790463       -0.1216845774
 C         -4.4140326988        0.4033478260        0.7946858412
 C         -5.7917794804        0.9073655441        1.1282548141
 C         -6.8899992093        0.3899962829        0.1889829594
 C         -6.8863483358        0.9979308934       -1.2142233170
 H         -7.8286407955        0.7153456188       -1.6878399153
 H         -6.8745458781        2.0856707399       -1.1376152048
 C         -5.7269774995        0.5296038888       -2.1046369195
 H         -5.2868241724       -0.3767476319       -1.6826216778
 H         -6.1102034164        0.2686672086       -3.0937128024
 C         -4.6231665976        1.5678165383       -2.3061116008
 H         -3.8384992888        1.1188768305       -2.9202456542
 H         -5.0232325477        2.4280576240       -2.8474689804
 C         -3.9800432775        2.0658136760       -1.0051722641
 H         -3.0753280091        2.6233501455       -1.2600871798
 H         -4.6631978033        2.7320570020       -0.4788382490
 H         -6.8035415156       -0.6965379199        0.1156134004
 H         -7.8510770254        0.6157495360        0.6567384908
 H         -6.0125492049        0.5602965004        2.1400049165
 H         -5.7941248830        1.9977918559        1.1274442667
 O         -4.0786102060       -0.6673026287        1.5619861113
 C         -2.8558650300       -1.2971631613        1.4116095932
 O         -2.6911762230       -2.2775477944        2.1646457277
 O         -1.4579505423        0.8462147210       -1.1615216378
 C         -0.6185682657       -1.5298953219        0.3741628315
 C          0.4494536915       -0.6888061107        1.0297704706
 C          0.7500404290       -0.8754783539        2.3751367354
 C          1.7107074378       -0.1002496565        2.9997384511
 C          2.3874022765        0.8815825904        2.2970858808
 C          2.0862246347        1.0809418730        0.9566764665
 C          1.1331513517        0.2926271750        0.3273133284
 H          0.8935382291        0.4705624433       -0.7092495389
 N          2.7748355677        2.0803557777        0.2329895841
 S          4.4139547605        1.8104100566        0.0164436357
 O          5.0786204616        1.9210208619        1.2898783169
 O          4.8356078400        2.7364858410       -1.0095676345
 C          4.5093877125        0.1332225245       -0.5819777916
 C          4.5670592298       -0.9040158869        0.3272333803
 C          4.5498624373       -2.2068801973       -0.1438522082
 C          4.4757992111       -2.4489277194       -1.5067789425
 C          4.4216228413       -1.3957654389       -2.4069182256
 C          4.4310004465       -0.0907450570       -1.9419274440
 H          4.3923912848        0.7568349932       -2.6075208596
 H          4.3672637019       -1.5868415104       -3.4668618374
 H          4.4605571820       -3.4647835188       -1.8692660570
 H          4.5915322818       -3.0276663973        0.5539305739
 H          4.6295902140       -0.6755244875        1.3784128103
 H          2.3452212041        2.2762585701       -0.6607069939
 H          3.1467999578        1.4895266699        2.7619871372
 H          1.9336733682       -0.2595732860        4.0439319165
 H          0.2113153135       -1.6305544252        2.9302734260
 H         -0.7384929686       -2.4430882318        0.9714763541
 C         -0.2675733797       -1.9220149699       -1.0471881622
 C          0.8621547444       -2.8792847218       -1.2756430224
 C         -0.5511080613       -3.3160407773       -1.5157207926
 H         -0.8825829010       -3.4593718140       -2.5333082343
 H         -1.0026677791       -3.9989053048       -0.8107720383
 H          1.5061986325       -2.7220008881       -2.1268524289
 H          1.3718677742       -3.2622029760       -0.4046803181
 H         -0.4060571429       -1.1238071444       -1.7644509256
