  62
        -98.94281990
 C         -1.0979807686       -1.3904455008        0.4123434550
 C         -1.4310958141       -0.5755919451       -0.6975269579
 C         -2.4390928511        0.4637473342       -0.4454952514
 C         -2.9421791691        0.6324372762        0.7894458606
 C         -3.9765280008        1.6467865633        1.1967960345
 C         -5.4207795908        1.2039984345        0.9230661410
 C         -5.8370848980        1.2122957130       -0.5485005739
 H         -6.9227485102        1.0990323129       -0.5742592333
 H         -5.6017461312        2.1825604018       -0.9869123093
 C         -5.2059181745        0.0967041803       -1.3933349798
 H         -4.8143425687       -0.6819763877       -0.7345362180
 H         -5.9748403326       -0.3682237238       -2.0146590571
 C         -4.0891467146        0.5626939485       -2.3277922029
 H         -3.6911854353       -0.3119313522       -2.8487353920
 H         -4.4995008713        1.2421798334       -3.0781091649
 C         -2.9238869839        1.2634088644       -1.6167327174
 H         -3.2255356430        2.2604934057       -1.2982955901
 H         -2.0955738882        1.3546075688       -2.3233430882
 H         -5.5647832347        0.2032082349        1.3367545692
 H         -6.0790899474        1.8852086585        1.4671767999
 H         -3.7875947132        2.5937022224        0.6903295166
 H         -3.8637331566        1.7939070838        2.2731850906
 O         -2.5365083626       -0.1167205484        1.8479154612
 C         -1.6341256109       -1.1515568535        1.6821174828
 O         -1.3875930335       -1.7844392739        2.7279316121
 O         -0.9329448194       -0.6920126290       -1.8474461825
 C         -0.1566168082       -2.5831660257        0.3208107948
 C          1.2789345503       -2.1395886473        0.4146647010
 C          2.1224377659       -2.6214787502        1.4078816818
 C          3.4306900415       -2.1757257555        1.5009400080
 C          3.9224121033       -1.2394344687        0.6083175026
 C          3.0835683873       -0.7511305598       -0.3845263881
 C          1.7764320196       -1.2008987069       -0.4797927143
 H          1.1273181124       -0.8168356564       -1.2532869880
 N          3.5614382575        0.2429952582       -1.2740268107
 S          3.7108845837        1.7545926797       -0.5677284661
 O          3.9674019928        2.6784140280       -1.6482742513
 O          4.7153594673        1.6790895698        0.4619650781
 C          2.1179353266        2.0927917472        0.1631038319
 C          1.2055394813        2.8529733960       -0.5402126141
 C         -0.0398577742        3.0905607511        0.0169566775
 C         -0.3553344436        2.5521131587        1.2545641768
 C          0.5630457009        1.7713614069        1.9384156872
 C          1.8148593408        1.5402975728        1.3916698398
 H          2.5575799990        0.9513307932        1.9049999689
 H          0.3047564328        1.3354561692        2.8910555796
 H         -1.3219972951        2.7404397841        1.6933069006
 H         -0.7604156675        3.6909457128       -0.5143494650
 H          1.4926377390        3.2560745382       -1.4982279221
 H          2.9795159130        0.3311438413       -2.0970028144
 H          4.9294069881       -0.8620474908        0.6801328079
 H          4.0732928901       -2.5585338491        2.2791928374
 H          1.7422843261       -3.3383836138        2.1210428263
 H         -0.3764651527       -3.1863743930        1.2150938663
 C         -0.4436774449       -3.4547238913       -0.8969412880
 C          0.5352871217       -3.6972534476       -2.0032725640
 C          0.2256708889       -4.7909567180       -1.0289256297
 H         -0.3596038612       -5.6356078835       -1.3594962100
 H          0.9838915423       -5.0369648890       -0.3005077780
 H          0.1450423648       -3.7686244858       -3.0072899310
 H          1.5050019544       -3.2282931713       -1.9478502427
 H         -1.4878564415       -3.4088471417       -1.1894391632
