  62
        -98.94032823
 C         -2.3432726594       -0.8413760496       -0.2074856699
 C         -3.5984418694       -1.1432829596        0.3739982200
 C         -4.7556188694       -0.4357196297       -0.1890501301
 C         -4.5683091793        0.4215489202       -1.2092379901
 C         -5.6478649793        1.2503706102       -1.8417033303
 C         -5.7660050294        2.6199061402       -1.1583038104
 C         -5.8421489395        2.5435629103        0.3665852996
 H         -4.8925573795        2.1646833704        0.7516936197
 H         -5.9544968095        3.5644115504        0.7381115196
 C         -6.9894100495        1.6752757703        0.9018392496
 H         -7.4803578895        2.2088746304        1.7184024296
 H         -7.7344274194        1.5231239403        0.1201655296
 C         -6.5533227695        0.3178228504        1.4565880398
 H         -7.3976092295       -0.1143221896        2.0002973598
 H         -5.7408311395        0.4592840705        2.1737673898
 C         -6.1024940294       -0.7158113297        0.4164489399
 H         -6.0075337594       -1.6796029396        0.9250502899
 H         -6.8626289794       -0.8112604497       -0.3613313202
 H         -4.8918215294        3.2170651902       -1.4277616404
 H         -6.6542638594        3.1230510602       -1.5445318304
 H         -5.3950947193        1.3989554201       -2.8927949803
 H         -6.5939839093        0.7167358702       -1.7769972103
 O         -3.3503138693        0.6716435202       -1.7539410701
 C         -2.2049779493        0.0650193603       -1.2585975900
 O         -1.1557614293        0.4093214803       -1.8346764600
 H          1.5051463806       -0.8714514696       -0.3662604697
 C          1.1124984406       -0.2643164195        0.4316369402
 C         -0.1728042894       -0.4638431395        0.9072336101
 C         -0.6384395195        0.3505882106        1.9376987801
 C          0.1618049705        1.3401484606        2.4729464800
 C          1.4465053405        1.5355018706        1.9963412401
 C          1.9188889205        0.7327741205        0.9650542902
 N          3.2035086706        0.9380875705        0.4386742602
 S          4.0817346506       -0.3716651995       -0.1561687697
 O          3.6384368807       -0.6787679296       -1.4923276997
 O          4.0526483206       -1.4620210994        0.7933856704
 C          5.7100618306        0.3536809605       -0.2173281396
 C          6.0139285806        1.1983990905       -1.2685201797
 C          7.2647174006        1.7933212205       -1.3098048396
 C          8.1858133806        1.5355043606       -0.3050685896
 C          7.8674184806        0.6840432506        0.7420672805
 C          6.6173450006        0.0868304706        0.7903642604
 H          6.3278009005       -0.5870584693        1.5805166905
 H          8.5868232305        0.4833353107        1.5194922805
 H          9.1589379806        1.9992255406       -0.3405183396
 H          7.5164380707        2.4539114204       -2.1237772197
 H          5.2690595207        1.3612972404       -2.0301891897
 H          3.7751986305        1.5419664206        1.0131279902
 H          2.0732594804        2.3097611906        2.4119626501
 H         -0.2133283396        1.9623666007        3.2716564200
 H         -1.6419330695        0.1938164306        2.3101101300
 C         -1.1004878394       -1.5141822096        0.3485779802
 H         -1.4544069994       -2.1363448595        1.1841739502
 C         -0.4560891493       -2.4120868196       -0.6846203897
 C          0.4483440707       -3.5229244796       -0.2447225296
 C         -0.9061027093       -3.8358974497       -0.8043350697
 H         -0.9693538692       -4.2748803397       -1.7886468596
 H         -1.6743782793       -4.1731158796       -0.1239241097
 H          1.3223866607       -3.7406703096       -0.8404554896
 H          0.6041790006       -3.6476383595        0.8164319104
 H         -0.2070455193       -1.8889158197       -1.6015462098
 O         -3.7426107494       -1.9608584196        1.3226637301
