  62
        -98.93715735
 C          1.5162327773        1.7138647249       -0.4370185011
 C          1.3841763125        0.4065640384       -0.9560588273
 C          2.3639549460       -0.5978018519       -0.4956992386
 C          3.3087316131       -0.2375580660        0.3890861409
 C          4.3713189953       -1.0907224863        1.0323693547
 C          3.8774717735       -2.4192707674        1.6280750284
 C          4.3855933902       -3.6458606289        0.8698124913
 H          5.4284047171       -3.4771990761        0.5929052884
 H          4.3604461751       -4.5071584189        1.5411029569
 C          3.5808724267       -4.0065752063       -0.3769426601
 H          4.1127745154       -4.8099461461       -0.8922775188
 H          2.6084104562       -4.4010916754       -0.0735436610
 C          3.3476942751       -2.8604542748       -1.3642287018
 H          4.2396287292       -2.2422949987       -1.4537209298
 H          3.1675730599       -3.3037901415       -2.3460000378
 C          2.1317451004       -1.9864834886       -1.0277322600
 H          1.5359956038       -1.8366851414       -1.9340058011
 H          1.4730573765       -2.5057004131       -0.3222655383
 H          2.7876044350       -2.4214040255        1.6670923064
 H          4.2355830002       -2.4817427616        2.6571708921
 H          5.1665427467       -1.2788821897        0.3078586786
 H          4.8023492962       -0.4666196508        1.8182992482
 O          3.4285472760        1.0463285660        0.8347699293
 C          2.5379881388        2.0319893654        0.4612421431
 O          2.7613512705        3.1455132005        0.9798577440
 H         -1.1069606710        0.7423980381       -0.2292112380
 C         -1.3275323192        1.5780529471        0.4119091470
 C         -0.6014042386        2.7543230177        0.2827697996
 C         -0.9077819722        3.8252843339        1.1128307121
 C         -1.9044758017        3.7108706795        2.0659661377
 C         -2.5881103216        2.5201916248        2.2271247864
 C         -2.2902698134        1.4414649090        1.3995189995
 N         -2.9641903596        0.2226824256        1.5525090814
 S         -2.2044543086       -1.2676352881        1.3813731379
 O         -2.7662636367       -2.0788358063        2.4446876141
 O         -0.7673872840       -1.1449182924        1.3720953867
 C         -2.8408278117       -1.8736249099       -0.1680989779
 C         -4.1064853927       -2.4304698870       -0.1526621855
 C         -4.6529600192       -2.8961753197       -1.3363908040
 C         -3.9281404066       -2.7978241063       -2.5150018836
 C         -2.6604047932       -2.2387196186       -2.5134813655
 C         -2.1064130266       -1.7698138174       -1.3309991246
 H         -1.1227306798       -1.3255962311       -1.3139642676
 H         -2.0919859656       -2.1582692876       -3.4263960661
 H         -4.3517866598       -3.1599620907       -3.4385755968
 H         -5.6385666299       -3.3331619096       -1.3376200957
 H         -4.6276780513       -2.5004437443        0.7876665315
 H         -3.6102124517        0.2014768360        2.3280385850
 H         -3.3427940443        2.4194006011        2.9926818940
 H         -2.1350401809        4.5493436712        2.7057117911
 H         -0.3440623810        4.7423199870        1.0240842655
 C          0.5325682826        2.8418675137       -0.7130735933
 H          1.0813812221        3.7722093870       -0.5109859245
 C          0.0112929517        2.8946144684       -2.1345054214
 C         -0.4969196574        4.1982540910       -2.6700997111
 C          0.7952966348        3.6321838206       -3.1759686263
 H          0.8292951145        3.2274920116       -4.1760819594
 H          1.7159393130        4.1053105620       -2.8657458278
 H         -1.3550483818        4.1850572981       -3.3241121406
 H         -0.4516987489        5.0595650690       -2.0208622043
 H         -0.4959930248        1.9905870644       -2.4419720616
 O          0.4907463933        0.0580128396       -1.7742703089
