  62
        -98.93985654
 C         -1.7856191014       -0.5275770950        0.8643786351
 C         -2.7932753838       -1.2227394475        0.1497003546
 C         -4.1628513755       -0.7163166716        0.3259064871
 C         -4.3977375895        0.3359108502        1.1286744286
 C         -5.7399100484        0.9523803637        1.4160147578
 C         -6.1974241377        1.9694997282        0.3615540441
 C         -6.6326392660        1.3686758741       -0.9757002610
 H         -7.3701617444        0.5855024152       -0.7973408941
 H         -7.1299651189        2.1627467609       -1.5363480040
 C         -5.4813410425        0.8114551146       -1.8246376611
 H         -4.5324301615        1.2116261220       -1.4595656503
 H         -5.5941862497        1.1497551996       -2.8571281306
 C         -5.3970123503       -0.7145893658       -1.8542368098
 H         -6.2873276907       -1.1211467478       -2.3390444802
 H         -4.5279243864       -0.9977374359       -2.4530416409
 C         -5.2527711302       -1.3660673658       -0.4727030621
 H         -6.1987011586       -1.3197619256        0.0662278793
 H         -4.9803881712       -2.4145714236       -0.6153912464
 H         -5.3894737138        2.6857479483        0.1941472143
 H         -7.0440357068        2.5167887041        0.7826971078
 H         -6.4904085443        0.1677321951        1.5162493806
 H         -5.6457099104        1.4682340062        2.3741179202
 O         -3.4044919537        0.9690479553        1.8091609541
 C         -2.0858881069        0.5670214181        1.6800033291
 O         -1.2795704759        1.2477245635        2.3471292897
 H          1.7911592203        0.8096711015        0.8153325558
 C          1.4202521464        0.6291362621       -0.1824789717
 C          0.3370500395       -0.2148032970       -0.3794388630
 C         -0.1497408553       -0.3938839876       -1.6719555765
 C          0.4362261404        0.2625778535       -2.7374399302
 C          1.5204546235        1.1000964806       -2.5393793677
 C          2.0108663092        1.2896145959       -1.2528732560
 N          3.0960193626        2.1452008603       -1.0272260928
 S          4.1864575703        1.8595515589        0.1984603333
 O          3.6306514554        2.2334697928        1.4745266521
 O          5.3728381936        2.5827194509       -0.2078166986
 C          4.5159839333        0.1057371751        0.1668465625
 C          4.8129005328       -0.4981614618       -1.0393200689
 C          5.0937479367       -1.8546662273       -1.0589517635
 C          5.0829491892       -2.5805509025        0.1221312006
 C          4.7903518530       -1.9590103926        1.3260187360
 C          4.5005809673       -0.6034001531        1.3503718733
 H          4.2542256900       -0.0835958255        2.2628856211
 H          4.7800341950       -2.5239522489        2.2444077567
 H          5.3000967009       -3.6365539981        0.1052810508
 H          5.3195699345       -2.3412728071       -1.9939613552
 H          4.8246142960        0.0912746340       -1.9413341058
 H          3.5307364995        2.5271280657       -1.8534445935
 H          1.9754724056        1.6155411413       -3.3713020121
 H          0.0483105329        0.1185847820       -3.7344857400
 H         -0.9918238391       -1.0509947966       -1.8256066880
 C         -0.3125905860       -0.9009369542        0.7947658569
 H          0.1331848750       -0.4785972370        1.7092632430
 C         -0.0811580798       -2.4068093578        0.8236797802
 C          0.5984631318       -3.1634752580       -0.2749681046
 C          1.3088800548       -2.9343871031        1.0223158816
 H          1.4558707741       -3.7681308959        1.6917157628
 H          2.1116761401       -2.2119814951        1.0307449952
 H          0.2284968708       -4.1522742469       -0.4985739814
 H          0.9359369194       -2.6177058299       -1.1414374296
 H         -0.8764624775       -2.9301446874        1.3432594931
 O         -2.5866391287       -2.2133384382       -0.5955178665
