  62
        -98.94109640
 C         -1.8871547873       -0.9025148454        0.2724571522
 C         -2.3143706931        0.0889830952        1.1901803529
 C         -2.6023733302        1.4149328846        0.6301045363
 C         -2.3837731132        1.6340424061       -0.6789581218
 C         -2.6773426071        2.9209295696       -1.3936666417
 C         -4.1016726981        2.9271590440       -1.9670773322
 C         -5.1741277074        2.5064994634       -0.9621189426
 H         -6.1390268272        2.5745217689       -1.4689193601
 H         -5.0223390636        1.4572783168       -0.6985853775
 C         -5.2088023614        3.3500851958        0.3198651660
 H         -6.2475893457        3.5963248141        0.5491301758
 H         -4.6798137253        4.2899651503        0.1588385968
 C         -4.6343410294        2.6523850547        1.5542398945
 H         -4.9006883033        3.2433383714        2.4344672459
 H         -5.0969799095        1.6687644879        1.6684721930
 C         -3.1109051728        2.4715603628        1.5702474750
 H         -2.6223798303        3.4283507936        1.3731319617
 H         -2.8233382480        2.1414653385        2.5730467655
 H         -4.3199910017        3.9307239556       -2.3364058702
 H         -4.1357380978        2.2374831148       -2.8135452464
 H         -1.9614823208        3.0277791971       -2.2105530961
 H         -2.5477982508        3.7505877064       -0.7011266891
 O         -1.9116965061        0.6791837518       -1.5182348467
 C         -1.6431439055       -0.6069173866       -1.0701739218
 O         -1.2134633577       -1.3679165095       -1.9573634788
 O         -2.4492153844       -0.1273661373        2.4258935473
 C         -1.5620005635       -2.2798992569        0.8238200397
 C         -0.2016675485       -2.7062670429        0.3319696892
 C          0.0496854481       -3.8999186094       -0.3301271157
 C          1.3246094987       -4.1898022842       -0.7853219161
 C          2.3639246334       -3.2975703681       -0.6033360287
 C          2.1239854598       -2.1039527755        0.0697591434
 C          0.8554422864       -1.8302311938        0.5489301500
 H          0.6768437706       -0.8968182126        1.0653275354
 N          3.1626041157       -1.1811871098        0.2920243715
 S          2.7842713676        0.4638452618        0.3091556788
 O          2.2864798678        0.8093412089        1.6185063430
 O          1.9378646913        0.8087696900       -0.8113091026
 C          4.4147540224        1.1539026861        0.0913599141
 C          4.8285338500        1.5289494367       -1.1728168262
 C          6.1116545205        2.0266847454       -1.3384019121
 C          6.9557236674        2.1365279926       -0.2435301675
 C          6.5259187987        1.7570535389        1.0195241611
 C          5.2439312943        1.2597575903        1.1921252150
 H          4.8616245297        0.9597280667        2.1537179206
 H          7.1837931508        1.8463522264        1.8687701431
 H          7.9539282150        2.5229563432       -0.3753734587
 H          6.4466317778        2.3254761780       -2.3185797846
 H          4.1336343029        1.4318843494       -1.9918064508
 H          3.9734594325       -1.3640890908       -0.2839311614
 H          3.3511233184       -3.5153857746       -0.9816909572
 H          1.5059804246       -5.1168744130       -1.3078450030
 H         -0.7561508808       -4.5902280807       -0.5174496615
 H         -1.4907850326       -2.1234988702        1.9143154811
 C         -2.6482327281       -3.3221940671        0.6058258702
 C         -4.0770993887       -2.9167944128        0.4048481385
 C         -3.3059520069       -3.5270009578       -0.7247966515
 H         -3.5517493647       -4.5353928717       -1.0242006487
 H         -2.9903913486       -2.8924744143       -1.5377620718
 H         -4.8488905769       -3.5026414428        0.8811067715
 H         -4.2939746338       -1.8590368201        0.3625796772
 H         -2.4844519062       -4.2096180069        1.2095436350
