  62
        -98.94592775
 C         -1.5778307605       -1.5762239806       -0.2889484228
 C         -1.4330246682       -0.2146281690       -0.6503814153
 C         -2.6827914762        0.5528108784       -0.7565455370
 C         -3.8566121706       -0.0612218431       -0.5221165462
 C         -5.1941384739        0.6195447941       -0.5257999661
 C         -5.5554416811        1.1354155045        0.8745679935
 C         -4.4397474034        1.9358966844        1.5469853050
 H         -4.8192155435        2.2697628732        2.5152503329
 H         -3.5940303694        1.2732111356        1.7448036057
 C         -3.9544719898        3.1492775075        0.7417245695
 H         -4.6969084738        3.4126854769       -0.0125459449
 H         -3.8623307584        4.0024540414        1.4170707327
 C         -2.5928593773        2.9625647733        0.0695261718
 H         -1.8639307238        2.6101046344        0.8033929804
 H         -2.2563476126        3.9395797296       -0.2860655466
 C         -2.5671766466        2.0043187479       -1.1272784373
 H         -3.3447625727        2.2832840265       -1.8410989818
 H         -1.5932233405        2.1076571070       -1.6138463357
 H         -5.7910304044        0.2776213523        1.5089211543
 H         -6.4516699682        1.7533607832        0.7940091376
 H         -5.9484313981       -0.1024426558       -0.8431168707
 H         -5.1746243078        1.4449206445       -1.2346852484
 O         -3.9549294597       -1.3762676541       -0.1961555236
 C         -2.8218660188       -2.1612158650       -0.0560324384
 O         -3.0503756849       -3.3426211302        0.2753886125
 O         -0.3235121620        0.3339245746       -0.8701393324
 C         -0.3418551310       -2.4424269852       -0.1169983225
 C          0.5273610684       -1.8272930084        0.9519509852
 C          0.0118662887       -1.7183814136        2.2419967152
 C          0.7494346467       -1.1309879854        3.2506968177
 C          2.0126144867       -0.6270780247        2.9912797070
 C          2.5359250910       -0.7329399729        1.7087244259
 C          1.7982697754       -1.3386352535        0.6996134067
 H          2.2332381002       -1.4128514419       -0.2820477945
 N          3.8187570907       -0.2467906446        1.4222988015
 S          4.1848290182        0.4201324119       -0.0620778076
 O          4.3022504337       -0.6138335648       -1.0600528378
 O          5.3938615844        1.1789973990        0.1895773211
 C          2.8729278291        1.5520300880       -0.4838402515
 C          2.4262255575        1.5986493745       -1.7868628962
 C          1.4675118719        2.5349204952       -2.1352759541
 C          0.9702361196        3.4011468913       -1.1764268628
 C          1.4217863492        3.3359208871        0.1316893718
 C          2.3868985702        2.4077478778        0.4835034376
 H          2.7586783176        2.3431025333        1.4934824245
 H          1.0220692644        4.0038693473        0.8782405938
 H          0.2205676332        4.1279362483       -1.4483896703
 H          1.1056226145        2.5777751345       -3.1505051585
 H          2.8295978212        0.8973581145       -2.5001077386
 H          4.2721682976        0.2468677059        2.1766150895
 H          2.5893101578       -0.1607220356        3.7754904917
 H          0.3370949197       -1.0561717871        4.2456949069
 H         -0.9812869859       -2.1004758138        2.4380419214
 H         -0.6973679744       -3.4175892263        0.2450736514
 C          0.3643605777       -2.6409579760       -1.4406433756
 C          1.2851415908       -3.8080938700       -1.6259457098
 C         -0.0407569763       -3.7803282052       -2.3242299098
 H         -0.0592412823       -3.6234873185       -3.3923311831
 H         -0.8224842592       -4.4344466197       -1.9657273824
 H          2.1824865615       -3.6684126215       -2.2099757786
 H          1.4054757847       -4.4850787546       -0.7934921030
 H          0.6261001416       -1.7063802474       -1.9234126983
