  62
        -98.94477499
 C          2.0224309369        0.9487285202       -0.4657730401
 C          3.0800697452        1.2475799734        0.4298662889
 C          4.3659536951        0.6034813098        0.1444286083
 C          4.4821383905       -0.2104597791       -0.9205107757
 C          5.7306369770       -0.9310672975       -1.3514227194
 C          5.9677638293       -2.2584603603       -0.6180753141
 C          6.4119930236       -2.1271618328        0.8393727931
 H          6.7503852768       -3.1143469167        1.1604898955
 H          7.2686894617       -1.4549968568        0.8977717261
 C          5.3120660866       -1.6476056717        1.7969014051
 H          4.3354590097       -1.7746239720        1.3235582816
 H          5.3142932555       -2.2702061335        2.6944640133
 C          5.4570404060       -0.1955766474        2.2526109569
 H          4.6070456999        0.0478334767        2.8949529197
 H          6.3685243453       -0.0866257424        2.8444690037
 C          5.4931008315        0.8248362487        1.1074054690
 H          6.4510218299        0.7765774591        0.5902153738
 H          5.3747430805        1.8236437486        1.5344364416
 H          5.0525846691       -2.8532365733       -0.6679556565
 H          6.7445434695       -2.7982364492       -1.1647082741
 H          6.5951385015       -0.2802176901       -1.2175768214
 H          5.6157953282       -1.1425247918       -2.4167585228
 O          3.4467908803       -0.4635983573       -1.7633684580
 C          2.1899678225        0.0865745698       -1.5493349734
 O          1.3379770689       -0.2590094427       -2.3903825981
 O          2.9543086299        2.0184680653        1.4176912684
 C          0.6601968715        1.5630750684       -0.1898157329
 C         -0.2784835308        0.4666377794        0.2471928086
 C         -0.2202724707        0.0047911661        1.5592690575
 C         -1.0457204576       -1.0180956440        1.9872933320
 C         -1.9472621223       -1.6030243409        1.1150565355
 C         -2.0070859551       -1.1534612822       -0.1968776569
 C         -1.1849629668       -0.1189131900       -0.6227339923
 H         -1.2333827280        0.2094414743       -1.6487183309
 N         -2.9372090106       -1.7348709686       -1.0805103895
 S         -4.5328899937       -1.7169450519       -0.5692566245
 O         -4.7617203694       -2.8152878730        0.3359702238
 O         -5.3293607500       -1.7169163930       -1.7761806702
 C         -4.6985603375       -0.1682099353        0.3018105191
 C         -4.5493966979        0.9997925714       -0.4196915908
 C         -4.6033691992        2.2119477432        0.2480556895
 C         -4.8004853482        2.2351060315        1.6203731215
 C         -4.9523783951        1.0541702096        2.3298114820
 C         -4.8980477759       -0.1616123998        1.6669604075
 H         -5.0064770691       -1.1029504218        2.1802493743
 H         -5.1069175820        1.0759752374        3.3965161284
 H         -4.8356322775        3.1803107574        2.1387923375
 H         -4.4854628264        3.1320311912       -0.3016404745
 H         -4.4022439346        0.9463208065       -1.4864512126
 H         -2.8574227122       -1.3921526905       -2.0269346517
 H         -2.6015867045       -2.4012778078        1.4265485558
 H         -0.9888640374       -1.3639183873        3.0081369807
 H          0.4892179133        0.4567000082        2.2383116618
 H          0.8168545134        2.2352607429        0.6646192844
 C          0.1440433540        2.3736171539       -1.3602252019
 C         -1.0396177077        3.2711290674       -1.1585342386
 C          0.3233525006        3.8607247989       -1.3588997176
 H          0.5413040424        4.3528915419       -2.2949831979
 H          0.8205012614        4.3031885307       -0.5083284536
 H         -1.7596364153        3.3616469033       -1.9574839660
 H         -1.4696492959        3.3076898490       -0.1691270549
 H          0.2407371775        1.8647627367       -2.3117240344
