  62
        -98.93378730
 C          1.4517955330        1.3317759253        0.3132832080
 C          1.6035516977       -0.0763488431        0.3887120959
 C          2.8231878351       -0.6495910199       -0.2023492409
 C          3.7279013648        0.1729703628       -0.7593700769
 C          5.0270821607       -0.1771780910       -1.4414497583
 C          5.8839385938       -1.2815770028       -0.8096592696
 C          5.8366174989       -1.3397243560        0.7243176861
 H          6.8571490169       -1.3365050994        1.1118845477
 H          5.3369557201       -0.4524809241        1.1170890516
 C          5.1365852703       -2.5941115768        1.2524380828
 H          5.4683512273       -3.4531856237        0.6652076302
 H          5.4514195932       -2.7636231011        2.2850329094
 C          3.6091319459       -2.5428050339        1.2463406940
 H          3.2401087095       -3.5314499425        1.5296598024
 H          3.2587712194       -1.8398821082        2.0068597561
 C          2.9655271743       -2.1403876071       -0.0901936313
 H          1.9462876459       -2.5350288558       -0.1039292685
 H          3.5135756524       -2.5561489521       -0.9321019534
 H          5.5867052804       -2.2490024820       -1.2115394590
 H          6.9109403478       -1.1087060442       -1.1361637972
 H          5.5944874730        0.7564639344       -1.4675138918
 H          4.8046739295       -0.4454526058       -2.4784353448
 O          3.5473356724        1.5222738235       -0.8038246503
 C          2.4072336946        2.1392883772       -0.3007433506
 O          2.3959823413        3.3727309118       -0.4655600702
 O          0.7465953093       -0.8245235651        0.9274036850
 C          0.1655617178        1.8924482959        0.8926565595
 C         -0.9187732902        1.8215955602       -0.1513671282
 C         -0.7412775718        2.3967936822       -1.4068582127
 C         -1.7355116627        2.3077394381       -2.3628042729
 C         -2.9133743881        1.6314766379       -2.0940185144
 C         -3.0958561635        1.0466002854       -0.8466337790
 C         -2.1011217910        1.1499173036        0.1174358693
 H         -2.2570558839        0.6935496732        1.0829094052
 N         -4.2796687408        0.3622355273       -0.5452492366
 S         -4.2709372792       -0.9587136395        0.4754304942
 O         -5.4954523633       -1.6595444417        0.1498009806
 O         -4.1478397062       -0.5254291955        1.8448866597
 C         -2.8706809209       -1.9591668683        0.0066786179
 C         -2.0271020999       -2.4450526415        0.9827776285
 C         -0.9720946826       -3.2631815010        0.6134023551
 C         -0.7778106043       -3.5742653667       -0.7221293509
 C         -1.6322344875       -3.0751268832       -1.6933921807
 C         -2.6932286690       -2.2638518449       -1.3285714178
 H         -3.3786647254       -1.8721177071       -2.0625983068
 H         -1.4734745613       -3.3162017403       -2.7324562653
 H          0.0466745295       -4.2082560796       -1.0100561881
 H         -0.3016412003       -3.6401640709        1.3682885797
 H         -2.2011161761       -2.1685546432        2.0101138058
 H         -4.9226664964        0.2479506743       -1.3143361243
 H         -3.6866606700        1.5578304492       -2.8432725915
 H         -1.5900891160        2.7628651694       -3.3308816505
 H          0.1833381405        2.9132967645       -1.6191578549
 H         -0.1131989204        1.1921225947        1.6967718450
 C          0.3110805242        3.2684810026        1.5237940752
 C         -0.3368243542        4.5036975804        0.9815093642
 C         -0.8588921017        3.8788172628        2.2381429326
 H         -0.6898260226        4.3801652340        3.1791353543
 H         -1.8010755103        3.3529935156        2.1813907597
 H          0.2174460309        5.4272327185        1.0504705343
 H         -0.9335520556        4.4213557828        0.0870145710
 H          1.2845606913        3.4043268557        1.9831724603
