  62
        -98.93330159
 C         -2.6459055193       -0.2055780523        0.6273315803
 C         -2.2539084999        0.3245072182       -0.6275251297
 C         -2.0238771205        1.7799514383       -0.6817789594
 C         -2.1169961906        2.5093294480        0.4418908208
 C         -1.9486475112        3.9973919981        0.6212550811
 C         -0.8027558017        4.6815564788       -0.1352973790
 C          0.4634139586        3.8315118994       -0.3192037695
 H          1.3290091784        4.4085726497        0.0125368104
 H          0.4202787892        2.9304251792        0.2961338703
 C          0.7016574984        3.4243934699       -1.7750507497
 H          0.5002683979        4.2826723699       -2.4212404894
 H          1.7542933885        3.1560103504       -1.8959511100
 C         -0.1175388211        2.2277074596       -2.2557155598
 H          0.0656887187        2.1009416199       -3.3261355098
 H          0.2433839694        1.3184961496       -1.7655912001
 C         -1.6341724011        2.3286390988       -2.0241258794
 H         -2.1266955710        1.6926686988       -2.7651451594
 H         -1.9838941516        3.3505249687       -2.1554330690
 H         -1.1550291221        5.0048217088       -1.1140214588
 H         -0.5543463320        5.5853500787        0.4238895112
 H         -1.8117444911        4.1375765379        1.6963230911
 H         -2.8929721115        4.4798201277        0.3513157515
 O         -2.4359749101        1.9483792476        1.6435187607
 C         -2.6847209794        0.5943356374        1.7696687205
 O         -2.9222469590        0.2261024970        2.9396267404
 O         -2.1189469098       -0.3678353615       -1.6685745599
 C         -2.8461831986       -1.6999442024        0.8392505699
 C         -1.6442603384       -2.4033659717        0.2600976395
 C         -1.6878597082       -3.3386937515       -0.7639733607
 C         -0.5156622681       -3.8425487008       -1.3030768111
 C          0.7189648818       -3.4196686004       -0.8429869113
 C          0.7681811016       -2.5064235006        0.1986833389
 C         -0.4021555584       -2.0209991213        0.7517635293
 H         -0.3523502386       -1.2827564614        1.5449127594
 N          2.0333447115       -2.0023867501        0.6366897087
 S          2.2873636206       -0.4745670898       -0.0578148810
 O          1.5307972404        0.5331026796        0.6570806194
 O          2.0545847404       -0.5874064196       -1.4739486510
 C          4.0307376406       -0.2536103291        0.2454972286
 C          4.9104771708       -1.0734547585       -0.4349513118
 C          6.2683155308       -0.9482892480       -0.1909776921
 C          6.7215500206       -0.0101510080        0.7251009781
 C          5.8266256704        0.8063592314        1.3990013185
 C          4.4660843504        0.6840377309        1.1605521188
 H          3.7334149902        1.2983060504        1.6594735291
 H          6.1809175002        1.5360279714        2.1093256586
 H          7.7790549106        0.0860087625        0.9141647878
 H          6.9674832410       -1.5808866175       -0.7136316324
 H          4.5101864210       -1.7817956485       -1.1409092118
 H          2.0368988117       -1.8629338104        1.6402701687
 H          1.6366293719       -3.7706870798       -1.2854727916
 H         -0.5662155880       -4.5550618806       -2.1123879513
 H         -2.6399264182       -3.6411412718       -1.1690999806
 H         -2.8194137683       -1.8313444127        1.9341320099
 C         -4.1802972284       -2.2566295929        0.3722258701
 C         -5.4048549888       -1.3918908135        0.3564860306
 C         -4.8127160389       -1.8764203029       -0.9311063796
 H         -5.3437294587       -2.6407274330       -1.4797782797
 H         -4.2861005194       -1.1744755525       -1.5568613696
 H         -6.3395899386       -1.8174020640        0.6893227108
 H         -5.2796532292       -0.3504586335        0.6166215209
 H         -4.3215622179       -3.2823225131        0.6996174699
