  62
        -98.94399642
 C          2.0306199609        0.8234944610        0.1532516145
 C          1.6810412516        1.8392173982       -0.7659026396
 C          0.6653316005        2.8113294820       -0.3221816701
 C          0.1458593935        2.6918581454        0.9118706192
 C         -0.9505772328        3.5075411068        1.5396837219
 C         -2.3219343240        2.8582230835        1.2832541390
 C         -3.0157058213        3.3055699614       -0.0017108583
 H         -3.9195434681        2.7011892237       -0.1100616689
 H         -3.3252230441        4.3484044209        0.1002153306
 C         -2.1845806014        3.1653949078       -1.2793419579
 H         -2.8742405094        3.1755309025       -2.1265579769
 H         -1.6865913399        2.1932070875       -1.2970993704
 C         -1.1595771621        4.2949030223       -1.4618731242
 H         -1.3808810618        5.0979184575       -0.7587926366
 H         -1.2674042195        4.7207679056       -2.4620729791
 C          0.3085103346        3.8739198352       -1.3254134704
 H          0.6579214093        3.4769103504       -2.2841980867
 H          0.9155013621        4.7628175960       -1.1181942442
 H         -2.9823083205        3.0900764642        2.1213738447
 H         -2.1871082204        1.7733935629        1.2615282151
 H         -0.9268513815        4.5324837778        1.1823912905
 H         -0.7592317018        3.5058880309        2.6146823269
 O          0.5374930592        1.7182980516        1.7794010335
 C          1.4599146417        0.7486039577        1.4225200857
 O          1.6784582817       -0.1002604723        2.3073807857
 O          2.1908272262        1.9243352408       -1.9170099947
 C          2.9863037159       -0.2741057912       -0.2821365694
 C          2.2331283229       -1.5832501522       -0.2987081986
 C          2.6569801657       -2.7318912558        0.3557673195
 C          1.8791897038       -3.8771315902        0.3285245156
 C          0.6654486296       -3.8972052723       -0.3334213230
 C          0.2368851376       -2.7561517197       -1.0039486958
 C          1.0323113171       -1.6216141261       -0.9985412201
 H          0.6983301702       -0.7417452393       -1.5295251641
 N         -0.9855208046       -2.7465270528       -1.7004835730
 S         -2.0830934875       -1.5005283447       -1.5087093591
 O         -3.2466718128       -1.9281154540       -2.2538054431
 O         -1.4911233076       -0.2498234976       -1.9042492621
 C         -2.4719435865       -1.4723323890        0.2298778401
 C         -1.5535778132       -0.9190850593        1.0982508555
 C         -1.8203223187       -0.9249531215        2.4578353130
 C         -3.0037016238       -1.4772377467        2.9232624727
 C         -3.9198859080       -2.0271870891        2.0384602614
 C         -3.6521827838       -2.0320216070        0.6788569033
 H         -4.3355502777       -2.4460402528       -0.0448080179
 H         -4.8399173220       -2.4532451246        2.4049755998
 H         -3.2108633349       -1.4765477730        3.9817093876
 H         -1.0923750775       -0.4981829270        3.1305794844
 H         -0.6430071491       -0.4929736884        0.7075703328
 H         -1.4700208499       -3.6328737741       -1.6941251412
 H          0.0537601781       -4.7865938236       -0.3373139730
 H          2.2172452572       -4.7630810848        0.8440258080
 H          3.5902579638       -2.7288754022        0.8939757999
 H          3.2653235742       -0.0258798372       -1.3169737486
 C          4.2348322408       -0.2914986607        0.5721252638
 C          5.5142646147       -0.8425102205        0.0193124118
 C          5.3617388685        0.6335328080        0.2268888843
 H          5.9081952537        1.1025965809        1.0312295001
 H          5.2377553837        1.2643121431       -0.6415139882
 H          6.1708606762       -1.3863012116        0.6814398761
 H          5.5012102697       -1.2150626060       -0.9938640268
 H          4.0202721441       -0.4458782452        1.6232164297
