  62
        -98.93362297
 C         -2.2371224281       -0.4990576982        0.1452151634
 C         -3.4840064350       -1.0462441544        0.5292556839
 C         -4.6336313618       -0.1306334658        0.4884369047
 C         -4.4390633658        1.1464571496        0.1115905856
 C         -5.5179290069        2.1790023454       -0.0539021395
 C         -6.2733012342        1.9447134842       -1.3778142056
 C         -7.7396094102        1.5476867972       -1.2053113065
 H         -8.3170783365        2.4334643056       -0.9325577925
 H         -8.1014138555        1.2047163223       -2.1769345032
 C         -8.0195585892        0.4652909871       -0.1582925162
 H         -8.0162934812        0.9091629867        0.8382788267
 H         -9.0356165276        0.1066563231       -0.3359591671
 C         -7.0656642764       -0.7362098096       -0.1633369462
 H         -7.6530360405       -1.6369336973        0.0260430499
 H         -6.6050182569       -0.8582787437       -1.1438565028
 C         -5.9655235245       -0.6851645937        0.9133252718
 H         -6.3310282628       -0.1317875839        1.7827320179
 H         -5.7498418593       -1.7064671075        1.2408461389
 H         -6.2332884752        2.8506858471       -1.9844654588
 H         -5.7477116016        1.1689492351       -1.9386213853
 H         -6.2021581620        2.1340779139        0.7904810580
 H         -5.0334783833        3.1555348721       -0.0603676064
 O         -3.2220834412        1.6375245792       -0.2428011884
 C         -2.0915403475        0.8336031693       -0.2372325185
 O         -1.0452737824        1.4156204648       -0.5825846969
 O         -3.6266573460       -2.2437132606        0.8971731269
 C         -1.0101155099       -1.3914598958        0.1527478588
 C          0.0642267358       -0.8049944583        1.0346250418
 C         -0.2745878627       -0.3758172355        2.3156297271
 C          0.6770576545        0.1780405190        3.1488407677
 C          1.9871098894        0.3140239344        2.7246215929
 C          2.3414919429       -0.1304481437        1.4564675992
 C          1.3829716385       -0.6919222148        0.6236557725
 H          1.6823396198       -1.0210196576       -0.3565706277
 N          3.6800472238       -0.0551536467        1.0339054062
 S          4.0681181046        0.1652294767       -0.5921031037
 O          3.4401114820        1.3582862381       -1.1143204438
 O          3.8130324821       -1.0605664991       -1.3055885705
 C          5.8286607947        0.4104205950       -0.4410147189
 C          6.3484220434        1.6896154537       -0.4951159968
 C          7.7157266319        1.8648177086       -0.3485031133
 C          8.5349930794        0.7641597579       -0.1480704505
 C          7.9988218202       -0.5141580328       -0.0969579753
 C          6.6331372630       -0.6962860347       -0.2444315542
 H          6.1726296296       -1.6700236768       -0.2208243926
 H          8.6393980969       -1.3676274956        0.0561872293
 H          9.5984458057        0.9033284006       -0.0340536931
 H          8.1354284518        2.8569705859       -0.3914904428
 H          5.6734269832        2.5142169743       -0.6602201860
 H          4.2342776075        0.5577576980        1.6167430721
 H          2.7290321819        0.7569008429        3.3715924350
 H          0.3963886435        0.5150228231        4.1355644153
 H         -1.3008915617       -0.4725966740        2.6436882149
 H         -1.3411592063       -2.3415456760        0.5992733883
 C         -0.5464662816       -1.6580255375       -1.2639214032
 C          0.1580138585       -2.9371206477       -1.6004171456
 C         -1.2437879105       -2.7060533186       -2.0764448358
 H         -1.4102625495       -2.5179527493       -3.1265463311
 H         -2.0430871151       -3.2518733764       -1.5966416498
 H          0.9640070800       -2.9050215873       -2.3184193958
 H          0.3107916071       -3.6460966902       -0.8007411789
 H         -0.2331018582       -0.7537465923       -1.7764581456
