  62
        -98.93280668
 C         -2.0678370835       -0.4019991240       -1.0264060213
 C         -2.9304028510        0.7057664869       -0.8420991567
 C         -4.3305514335        0.3916906654       -0.4960613119
 C         -4.7151802970       -0.8883277747       -0.3659549832
 C         -6.0868712448       -1.4338865216       -0.0559053606
 C         -6.9043718353       -0.7247813576        1.0324060713
 C         -6.0773059687       -0.1284105742        2.1806292728
 H         -6.4944116753       -0.4671201457        3.1309058335
 H         -5.0492716153       -0.4914515389        2.1291168766
 C         -6.0790301468        1.4021933980        2.1853997571
 H         -7.0933778832        1.7517534723        1.9808660903
 H         -5.8091225715        1.7500613054        3.1853946310
 C         -5.1142190108        2.0614456582        1.2009230159
 H         -4.0841333784        1.8999404084        1.5293738845
 H         -5.2930602081        3.1390316823        1.2249803937
 C         -5.2208884060        1.5770326269       -0.2543747143
 H         -6.2524351164        1.3670072912       -0.5257226188
 H         -4.8448786025        2.3739472975       -0.9015230459
 H         -7.5058251619        0.0633036209        0.5814335749
 H         -7.6027139618       -1.4624208964        1.4315378575
 H         -6.6645852210       -1.4480890656       -0.9848378026
 H         -5.9182230595       -2.4743270253        0.2324968396
 O         -3.8485016189       -1.9262566740       -0.5462741611
 C         -2.5221358546       -1.7134850319       -0.8715203205
 O         -1.8542853386       -2.7599603966       -1.0022871242
 H          1.5783178427       -1.6981443231       -0.6488768616
 C          1.3303251520       -0.9281167425        0.0659802680
 C          0.2434207414       -0.0947782067       -0.1524790664
 C         -0.0508928049        0.8848757917        0.7924725378
 C          0.7199719377        1.0143024973        1.9322644465
 C          1.8098638799        0.1865066258        2.1424503349
 C          2.1178549889       -0.7874468564        1.2014740947
 N          3.2304944653       -1.6365566124        1.3736764551
 S          4.4448401965       -1.5516775588        0.2228805799
 O          3.9297483566       -1.9500426479       -1.0608526678
 O          5.5323806133       -2.3379649464        0.7590279891
 C          4.8950121775        0.1745836559        0.2005523110
 C          5.9216279723        0.6113821681        1.0148581945
 C          6.2161085613        1.9647800956        1.0538836600
 C          5.4748377980        2.8549572890        0.2913521725
 C          4.4456252624        2.4010751585       -0.5192929547
 C          4.1503722478        1.0479484905       -0.5666569119
 H          3.3610141067        0.6584703194       -1.1879383339
 H          3.8683318097        3.0910058681       -1.1138564624
 H          5.7009198574        3.9089378220        0.3265144397
 H          7.0184877871        2.3209500796        1.6796964107
 H          6.4739456634       -0.1162278093        1.5874057294
 H          3.6407893756       -1.5822922972        2.2958981709
 H          2.4149671811        0.2898565581        3.0306621454
 H          0.4769828918        1.7735133856        2.6599726247
 H         -0.8858094454        1.5452612612        0.6155330459
 C         -0.5993376179       -0.2612243086       -1.3919077719
 H         -0.3241841996       -1.2262287264       -1.8463564046
 C         -0.3446715454        0.8255335590       -2.4308106494
 C          0.5789339476        1.9801553321       -2.1947927480
 C          0.9844294009        0.8787822969       -3.1246117928
 H          1.0074532746        1.0746924283       -4.1860638650
 H          1.7410559381        0.1801570063       -2.7954480016
 H          0.3007349262        2.9342549405       -2.6155814503
 H          1.0716970355        2.0520803453       -1.2377282520
 H         -1.2178001369        1.0246340817       -3.0416679214
 O         -2.5754297153        1.9055268268       -0.9626155723
