  62
        -98.93885747
 C         -1.9128405624       -0.2761436330        0.0347603161
 C         -2.9467556372       -1.1332403138        0.4774292299
 C         -4.2607472746       -0.5104158014        0.7112266455
 C         -4.3975748946        0.8131236707        0.5192429524
 C         -5.6539380358        1.6293389938        0.6471444412
 C         -6.3540977505        1.7624007453       -0.7159528715
 C         -7.3214643318        0.6293507943       -1.0565645392
 H         -8.2080901792        0.7130601192       -0.4245450628
 H         -7.6417006063        0.7759883057       -2.0907136519
 C         -6.7513198720       -0.7844255313       -0.9144197770
 H         -7.3665983812       -1.4548890131       -1.5176378467
 H         -5.7406606962       -0.8165678225       -1.3255459019
 C         -6.7430375207       -1.2893003572        0.5361952700
 H         -7.3565869160       -0.6267327769        1.1464244391
 H         -7.2144093935       -2.2733649281        0.5782594057
 C         -5.3526101240       -1.4369678148        1.1726611154
 H         -5.4474082132       -1.3504682325        2.2601920610
 H         -4.9656098314       -2.4409354124        0.9723473008
 H         -6.9126976366        2.7004582105       -0.7332480763
 H         -5.5796402938        1.8299402243       -1.4845148357
 H         -6.3189196372        1.2007304271        1.3909834364
 H         -5.3469933594        2.6233643341        0.9790001978
 O         -3.3689461140        1.6069020099        0.1120861691
 C         -2.1092886671        1.0924089201       -0.1467092818
 O         -1.2765050132        1.9392007220       -0.5214014301
 O         -2.7808638175       -2.3687478199        0.6661546018
 C         -0.5416559538       -0.8684383453       -0.2427006867
 C          0.4744644650       -0.2223323852        0.6649517649
 C          0.3207519345       -0.3733629526        2.0418958866
 C          1.1983769321        0.2285330331        2.9211298428
 C          2.2552919296        0.9865313616        2.4463795482
 C          2.4192968535        1.1430204389        1.0758733280
 C          1.5348553028        0.5339837842        0.1937629103
 H          1.6746125221        0.6914923059       -0.8617746309
 N          3.4691138836        1.9277244270        0.5732364233
 S          4.3964587544        1.4167621271       -0.7181369501
 O          5.5331401263        2.3108735422       -0.7204801659
 O          3.6114400103        1.3782045323       -1.9246248334
 C          4.9233437885       -0.2253686349       -0.2636279632
 C          6.0485727937       -0.3577852929        0.5270156154
 C          6.4345792185       -1.6227868190        0.9387962618
 C          5.6862410385       -2.7282602287        0.5631114306
 C          4.5589131950       -2.5782202833       -0.2294877245
 C          4.1699269108       -1.3156171043       -0.6490607298
 H          3.3025895915       -1.1622473751       -1.2692986827
 H          3.9789169993       -3.4386192670       -0.5230347408
 H          5.9842993250       -3.7130567295        0.8866660457
 H          7.3137955263       -1.7430336127        1.5510144896
 H          6.6064505410        0.5270672518        0.7875176728
 H          4.0498340659        2.3503921794        1.2825305702
 H          2.9384397824        1.4653087245        3.1314239517
 H          1.0625770981        0.1068885639        3.9851684072
 H         -0.5083865523       -0.9618770095        2.4104420953
 H         -0.6248758796       -1.9296216288        0.0336092393
 C         -0.2070148924       -0.7756441786       -1.7155670557
 C          0.7368761249       -1.7628734572       -2.3319478369
 C         -0.7271824595       -1.8286369290       -2.6458648196
 H         -1.0607389889       -1.5289821509       -3.6281014517
 H         -1.3075544437       -2.6303605409       -2.2129479835
 H          1.4131725088       -1.4177276502       -3.1002767782
 H          1.1446972702       -2.5286729284       -1.6892067702
 H         -0.1905391525        0.2443553166       -2.0835949878
