  62
        -98.94122907
 C         -2.0172623671       -1.2341424046        0.1233317349
 C         -2.7963389114       -0.6597635382        1.1599448121
 C         -3.9687104726        0.1139669199        0.7377533152
 C         -4.2318880887        0.2617254079       -0.5731289486
 C         -5.4011455444        1.0016299473       -1.1642147897
 C         -5.1825913946        2.5155767376       -1.2908002941
 C         -5.2136916732        3.2902358366        0.0274260756
 H         -5.2667479310        4.3510218699       -0.2256351202
 H         -6.1239187836        3.0401183269        0.5733443660
 C         -3.9914299141        3.0586115217        0.9269556856
 H         -3.1835688533        2.6200164673        0.3359754876
 H         -3.6276045174        4.0183840825        1.3012562571
 C         -4.2578479607        2.1693848167        2.1418023583
 H         -4.9692157552        2.6631935585        2.8073873208
 H         -3.3190651669        2.0431375986        2.6872895381
 C         -4.7971100158        0.7746338011        1.7981743393
 H         -4.7433818718        0.1559864074        2.6973875277
 H         -5.8375571472        0.8415748375        1.4809957362
 H         -4.2285459299        2.6901100340       -1.7941165931
 H         -5.9735283002        2.9061070051       -1.9352423531
 H         -5.5542509055        0.5919159860       -2.1649680774
 H         -6.2948432579        0.8102048623       -0.5695162288
 O         -3.4432678359       -0.2759793858       -1.5393642121
 C         -2.3060456166       -1.0131229699       -1.2246865892
 O         -1.6679716868       -1.3973608255       -2.2210703622
 O         -2.5203832486       -0.7844837434        2.3831602165
 C         -0.7873604980       -2.0276704220        0.5278934252
 C          0.4124430521       -1.5479742868       -0.2495991423
 C          1.1749344967       -2.3609318744       -1.0764357909
 C          2.2510663694       -1.8380868634       -1.7732555240
 C          2.5937377531       -0.5042406698       -1.6572625348
 C          1.8447919763        0.3157203846       -0.8218252835
 C          0.7727469628       -0.2114672239       -0.1194013078
 H          0.1850526104        0.4306461646        0.5258135806
 N          2.1874952598        1.6713249214       -0.6889941688
 S          3.8032179278        2.0737880789       -0.5334013440
 O          3.8100792337        3.3281918816        0.1864731986
 O          4.4296301269        2.0910342714       -1.8317202378
 C          4.5158181976        0.7773195970        0.4638536802
 C          5.5182468771       -0.0187371868       -0.0511839069
 C          6.0345283428       -1.0377899565        0.7333607971
 C          5.5387982312       -1.2441259076        2.0111289351
 C          4.5333891232       -0.4334019779        2.5159094805
 C          4.0150769506        0.5878787173        1.7367822743
 H          3.2373295289        1.2394635703        2.1021292847
 H          4.1491921154       -0.5946641910        3.5103882674
 H          5.9379853291       -2.0402453651        2.6194273728
 H          6.8177274847       -1.6682180936        0.3444610630
 H          5.8728448027        0.1753317143       -1.0503050333
 H          1.6139395577        2.1816265948       -0.0345832753
 H          3.4138354203       -0.0793668234       -2.2128957739
 H          2.8263491254       -2.4780572812       -2.4246075926
 H          0.9098807848       -3.3977413225       -1.1995460386
 H         -0.6317514333       -1.7583799493        1.5863910693
 C         -0.9700472901       -3.5371819046        0.4948213363
 C         -2.3215621618       -4.1546010661        0.6910722560
 C         -1.6423889671       -4.2462955770       -0.6408689574
 H         -1.2501942329       -5.2046210806       -0.9489700767
 H         -2.0166645699       -3.6465692206       -1.4552231422
 H         -2.3962670902       -5.0461403814        1.2954924608
 H         -3.1672378308       -3.4891316990        0.7884473241
 H         -0.1372973077       -4.0530127926        0.9629728960
