  62
        -98.94480117
 C         -1.0178548807       -1.1666542297       -0.3154382405
 C         -2.0767311605       -1.3666318894        0.6097760898
 C         -2.9630350800       -0.2224049891        0.8514960201
 C         -2.7213362498        0.9368565708        0.2133066000
 C         -3.5687656793        2.1699692311        0.3266089403
 C         -4.6629773396        2.1928941216       -0.7496836694
 C         -5.4595460901        0.8919562418       -0.8483970792
 H         -6.2226358803        1.0345457921       -1.6167690590
 H         -4.7986926805        0.0948885216       -1.1968088694
 C         -6.1295440499        0.4564190220        0.4623365610
 H         -6.1867378094        1.3020220020        1.1486074510
 H         -7.1538362301        0.1455982624        0.2456034912
 C         -5.4466979601       -0.7195490582        1.1633822307
 H         -5.3040365806       -1.5370402182        0.4520342907
 H         -6.1161381200       -1.0828095480        1.9478254509
 C         -4.0955256798       -0.4118123687        1.8212655604
 H         -4.1943656593        0.4580688413        2.4735476104
 H         -3.8220153600       -1.2739219588        2.4364791803
 H         -5.3415114993        3.0207901018       -0.5359918692
 H         -4.1925425098        2.3791422114       -1.7177755795
 H         -4.0182987990        2.2055200713        1.3168939604
 H         -2.9259476091        3.0407135809        0.1949555902
 O         -1.6949692800        1.0979241805       -0.6562397102
 C         -0.8219792304        0.0597868002       -0.9520877505
 O          0.0530124595        0.3762747699       -1.7817636007
 H          1.7056353096       -0.3447569007       -0.3522804312
 C          1.9299848295       -1.1495672408        0.3286198787
 C          1.1131400491       -2.2712566605        0.3577916989
 C          1.4252697390       -3.3060558407        1.2310888988
 C          2.5348299092       -3.2193300711        2.0533277385
 C          3.3478204996       -2.1013994114        2.0217340883
 C          3.0388083598       -1.0562749612        1.1563499484
 N          3.8088110802        0.1102867085        1.1509140782
 S          3.8405478102        1.1783425885       -0.1274901817
 O          3.9400716496        0.4970727885       -1.3969567318
 O          4.9492300706        2.0576166181        0.1888774380
 C          2.3338974306        2.1178375991       -0.0074803013
 C          1.8582929005        2.7321010593       -1.1474272112
 C          0.7315065808        3.5327579297       -1.0588842108
 C          0.1014031912        3.7015316598        0.1627777594
 C          0.5848347813        3.0696013596        1.2975658792
 C          1.7157356210        2.2734703592        1.2166997489
 H          2.1120969510        1.7663069591        2.0811851687
 H          0.0825918616        3.1914195898        2.2442937693
 H         -0.7748772286        4.3275291502        0.2296416596
 H          0.3440487707        4.0098532898       -1.9447734907
 H          2.3651134801        2.5580189691       -2.0830825613
 H          4.6650654603        0.0914766682        1.6827027380
 H          4.2114224198       -2.0300614517        2.6649027381
 H          2.7690354191       -4.0296600512        2.7268100584
 H          0.7851118487       -4.1747791004        1.2720748489
 C         -0.0962350012       -2.3527157601       -0.5436129308
 H         -0.6786732414       -3.2344534099       -0.2420855906
 C          0.3407814484       -2.5378017002       -1.9831315909
 C          0.7283637678       -3.9062867003       -2.4542805710
 C         -0.5472136422       -3.2814118598       -2.9328786207
 H         -0.6071361623       -2.9397415898       -3.9552243207
 H         -1.4792663422       -3.6677394095       -2.5463097504
 H          0.6589455277       -4.7193812003       -1.7475539011
 H          1.5503312875       -3.9958545606       -3.1479128413
 H          0.8970689586       -1.6961865304       -2.3757928710
 O         -2.2726628407       -2.4613112793        1.2034509698
