  62
        -98.93842570
 C          2.2726450586        0.8232688070        0.2040130477
 C          1.6052027151        0.1655198740       -0.8573505133
 C          1.9575992300       -1.2475085042       -1.0586898627
 C          2.8414841235       -1.8329965120       -0.2318387501
 C          3.2995789235       -3.2593636182       -0.3289713185
 C          2.4432221766       -4.1983894977        0.5298400136
 C          0.9380862670       -4.0329672868        0.3195037806
 H          0.4392900016       -4.7862213638        0.9345446445
 H          0.6212790448       -3.0582660647        0.6984054992
 C          0.4778956479       -4.1766670901       -1.1378437228
 H         -0.4218469708       -4.7954134142       -1.1571387524
 H          1.2412972458       -4.6928129697       -1.7221727500
 C          0.1207587111       -2.8502341374       -1.8114183259
 H         -0.5288040373       -2.2793188041       -1.1432236655
 H         -0.4455756443       -3.0684784903       -2.7209534703
 C          1.3080833529       -1.9634212704       -2.2095173276
 H          2.0431967851       -2.5567378279       -2.7582624615
 H          0.9321505336       -1.1803914894       -2.8744171241
 H          2.7326040686       -5.2273335631        0.3054448406
 H          2.6637076040       -4.0054951087        1.5825349927
 H          3.2631087123       -3.5721392923       -1.3709574802
 H          4.3333084311       -3.3083180992        0.0191584213
 O          3.4197109993       -1.1836137160        0.8126939323
 C          3.1389872877        0.1483244249        1.0616723717
 O          3.7196337169        0.6191383906        2.0643314281
 O          0.7716563457        0.7264059787       -1.6130403224
 C          2.0270030036        2.3043424362        0.4879406069
 C          0.5348404119        2.5308205808        0.4820114196
 C         -0.2140166512        3.3647802663       -0.3379199353
 C         -1.5984106397        3.3753851243       -0.2678105822
 C         -2.2771586361        2.5360855640        0.5945209614
 C         -1.5404821055        1.7092210564        1.4309157273
 C         -0.1599963453        1.7384943051        1.3951491005
 H          0.3984418255        1.0761141724        2.0470391397
 N         -2.2318661531        0.7575098091        2.2399844879
 S         -2.2022798698       -0.7510548760        1.4709965920
 O         -2.9261815543       -1.6507601929        2.3452402182
 O         -0.8485702868       -1.1553797474        1.1577909054
 C         -3.1389809399       -0.4400972264       -0.0055218121
 C         -2.4959122752       -0.0094654811       -1.1493106370
 C         -3.2594561143        0.2713135415       -2.2724484117
 C         -4.6370268505        0.1226124992       -2.2321629689
 C         -5.2656722140       -0.3084869642       -1.0732323775
 C         -4.5111894607       -0.5905930256        0.0535864821
 H         -4.9504179430       -0.9307854751        0.9769926786
 H         -6.3373401906       -0.4226925125       -1.0439909664
 H         -5.2236528483        0.3451496033       -3.1096134360
 H         -2.7660549100        0.6104861427       -3.1690045969
 H         -1.4225333795        0.1084918989       -1.1561842274
 H         -1.8059370995        0.6408634642        3.1508629759
 H         -3.3539365695        2.5026575790        0.6240038640
 H         -2.1542962969        4.0286418257       -0.9224521458
 H          0.2595415325        3.9946380076       -1.0683497919
 H          2.3648943352        2.4567164120        1.5273109989
 C          2.9791320466        3.1177277889       -0.3756581779
 C          2.7415853462        3.4933343206       -1.8046373647
 C          2.8090625279        4.5592532068       -0.7496623110
 H          3.6894144403        5.1846694772       -0.7247366667
 H          1.9098683180        5.0712930091       -0.4499886610
 H          3.5718797661        3.4026783357       -2.4902858295
 H          1.7952770996        3.2252236404       -2.2449213654
 H          3.9969797901        2.8153078832       -0.1357712032
