  62
        -98.94625508
 C         -1.8066988807       -0.7325861537        0.2149156264
 C         -3.1115870560       -1.0501412067        0.6610030270
 C         -4.0599315956        0.0699713946        0.7186023836
 C         -3.6432612622        1.3027032032        0.3751480962
 C         -4.5178609738        2.5216721452        0.3371706527
 C         -5.1460071846        2.7116569801       -1.0506246278
 C         -5.8024524654        1.4493759465       -1.6098106030
 H         -6.2369002743        1.7100688005       -2.5773997378
 H         -5.0309975015        0.6986752983       -1.7966643731
 C         -6.8883206766        0.8455111714       -0.7082870341
 H         -7.2241167800        1.5883262465        0.0162232483
 H         -7.7498001370        0.5828204615       -1.3259004598
 C         -6.4653891139       -0.4263310606        0.0292291197
 H         -7.3608787833       -0.8850689145        0.4569674501
 H         -6.0418540913       -1.1390847263       -0.6830645780
 C         -5.4605890504       -0.2320362999        1.1718263919
 H         -5.8222062740        0.5415533536        1.8522489308
 H         -5.3998271835       -1.1745704140        1.7239625940
 H         -4.3636247431        3.0262102894       -1.7451408091
 H         -5.8863310322        3.5112733128       -0.9879560859
 H         -5.2979291184        2.4264485492        1.0899547937
 H         -3.9041668329        3.3932093206        0.5706273376
 O         -2.3746686885        1.5728245262       -0.0255547993
 C         -1.4274129586        0.5645164850       -0.1278210305
 O         -0.3098171145        0.9471670050       -0.5206458378
 H          1.8960251610       -1.8602656016       -0.6225869968
 C          1.7270591728       -1.5790831199        0.4028045054
 C          0.4433664894       -1.5155413352        0.9201921778
 C          0.2801210563       -1.1516509083        2.2553152219
 C          1.3714589233       -0.8438210564        3.0430922730
 C          2.6509674674       -0.8854049224        2.5154489787
 C          2.8264791230       -1.2555708711        1.1885397343
 N          4.1160982952       -1.3402060850        0.6322394168
 S          4.4929566123       -0.5273689329       -0.7813517583
 O          3.6362869678       -0.9709265148       -1.8495686012
 O          5.9101076032       -0.7556529065       -0.9628031819
 C          4.2173138969        1.1964094949       -0.4129034244
 C          2.9279741990        1.6874592609       -0.3663036906
 C          2.7365293653        3.0180508387       -0.0254656046
 C          3.8237603711        3.8287831197        0.2599830503
 C          5.1124417533        3.3182764717        0.2086732744
 C          5.3124556605        1.9892719849       -0.1255680402
 H          6.2953911584        1.5499059969       -0.1815753808
 H          5.9578699369        3.9500002891        0.4291600452
 H          3.6649611645        4.8630145622        0.5223919216
 H          1.7286267989        3.4001436394        0.0125517546
 H          2.0853635553        1.0524445701       -0.5903752215
 H          4.8587836864       -1.2019151250        1.3034796249
 H          3.5052557102       -0.6386857517        3.1275075353
 H          1.2268673465       -0.5623046032        4.0752375536
 H         -0.7200999791       -1.1115905247        2.6652097411
 C         -0.7788508302       -1.8429168031        0.0997245966
 H         -1.2579193493       -2.7321026641        0.5366393100
 C         -0.4741681819       -2.1246357085       -1.3567047928
 C         -0.0432208590       -3.4936577057       -1.7870856642
 C         -1.4100761743       -2.9920469647       -2.1415216937
 H         -1.6157127931       -2.7320222356       -3.1691997428
 H         -2.2589153385       -3.4060455358       -1.6167903060
 H          0.6959095885       -3.5759612517       -2.5700017214
 H          0.0354475098       -4.2548950816       -1.0256089819
 H         -0.0388915478       -1.2724704986       -1.8683474663
 O         -3.4632412633       -2.2122262237        1.0000670489
