  62
        -98.94080897
 C          2.6597490474        0.1036675170        0.3491272888
 C          2.7030324549        1.1150200757       -0.6445907462
 C          2.1539759700        2.4218013871       -0.2753343342
 C          1.6274169100        2.5949810093        0.9498395103
 C          0.9861797745        3.8530478077        1.4692026557
 C         -0.4784041288        4.0108333019        1.0369380426
 C         -0.6849025027        4.4290247051       -0.4199807207
 H         -1.7223688991        4.7564741819       -0.5129354977
 H         -0.0497882365        5.2866595606       -0.6461409135
 C         -0.4316820932        3.3102771705       -1.4400327384
 H         -0.4708757754        2.3419788188       -0.9357209733
 H         -1.2311843877        3.3141208364       -2.1853520808
 C          0.8879803735        3.4254398870       -2.2033184135
 H          0.8660616849        4.3119637898       -2.8422834797
 H          0.9864257427        2.5465887784       -2.8456821592
 C          2.1357483469        3.5014508984       -1.3156568164
 H          3.0139579984        3.3598974420       -1.9511019998
 H          2.2009260743        4.4808801529       -0.8415989674
 H         -0.9293087470        4.7701452530        1.6807258324
 H         -0.9959212605        3.0647120290        1.2179394889
 H          1.5611820317        4.7224805052        1.1480283692
 H          1.0220562154        3.7936711787        2.5592255795
 O          1.6376069707        1.6167577662        1.8912133730
 C          2.1237067731        0.3428320559        1.6153240174
 O          2.0420415608       -0.4374917735        2.5829357517
 O          3.1891331623        0.9287153873       -1.7938304517
 C          3.1031603602       -1.2807741843       -0.0934884321
 C          1.9446315566       -1.9307086729       -0.8105899867
 C          2.1033454951       -2.5384650800       -2.0499432588
 C          1.0087532123       -3.0477393121       -2.7274881622
 C         -0.2639205655       -2.9308695253       -2.1991991663
 C         -0.4311708518       -2.3311192153       -0.9551819302
 C          0.6730501664       -1.8674419720       -0.2580947270
 H          0.5260868013       -1.4152559014        0.7117121738
 N         -1.7026499893       -2.1787449189       -0.3821922695
 S         -1.9838607939       -0.7873238327        0.5419942894
 O         -1.2560655241        0.3335333672       -0.0033485516
 O         -1.7497467651       -1.1071920761        1.9280382775
 C         -3.7337385426       -0.5659959352        0.2750957246
 C         -4.1646621410        0.3853583003       -0.6295575005
 C         -5.5252878828        0.5318591925       -0.8511472656
 C         -6.4259625349       -0.2735665194       -0.1707315266
 C         -5.9781988001       -1.2239248744        0.7352648213
 C         -4.6195537867       -1.3742623004        0.9630180273
 H         -4.2245098914       -2.0899697679        1.6651756553
 H         -6.6814354301       -1.8460131968        1.2649255407
 H         -7.4839336534       -0.1576534334       -0.3450200615
 H         -5.8756760905        1.2727026927       -1.5515069565
 H         -3.4261627568        0.9921827072       -1.1289476481
 H         -2.4577486307       -2.3697650205       -1.0262589821
 H         -1.1221010478       -3.2943931169       -2.7435777416
 H          1.1449067240       -3.5157899705       -3.6905548122
 H          3.0870842131       -2.5850393233       -2.4933703355
 H          3.8947900936       -1.1073760757       -0.8409689844
 C          3.6958232722       -2.1451738381        1.0059341932
 C          2.9623590824       -3.2898060917        1.6310001066
 C          4.1086287916       -3.5561234795        0.7047225218
 H          5.0346858366       -3.9229880032        1.1201605575
 H          3.8761599197       -3.9432858940       -0.2757576446
 H          3.0945169798       -3.4470909131        2.6904711333
 H          1.9613899421       -3.5008113519        1.2872687030
 H          4.3429000835       -1.5751199686        1.6643037722
