  62
        -98.94027520
 C          2.0081835140        0.0956453525       -0.4796719360
 C          2.8143808032       -0.5469792566        0.4926963045
 C          4.1415314605        0.0492779274        0.7106883864
 C          4.5002805306        1.1636706117        0.0501807103
 C          5.8041915757        1.9005527572        0.1937698210
 C          6.9439596487        1.3241373790       -0.6573934397
 C          7.5130960897       -0.0079301590       -0.1670142997
 H          8.4380786308       -0.1835517566       -0.7199529684
 H          7.7761271999        0.0771859717        0.8878229391
 C          6.5800043079       -1.2094935395       -0.3720046560
 H          5.8072841348       -0.9497393258       -1.0993343679
 H          7.1473599401       -2.0430901539       -0.7921693031
 C          5.9084423474       -1.7157446036        0.9046318322
 H          5.2435410768       -2.5411293468        0.6379465529
 H          6.6670685456       -2.1024162496        1.5886958064
 C          5.0780214119       -0.6581986520        1.6434078990
 H          5.7341831804        0.0564666464        2.1396057192
 H          4.4737620432       -1.1641425937        2.4002752942
 H          6.5905637202        1.2135608432       -1.6852840232
 H          7.7513409531        2.0601134891       -0.6616871846
 H          6.1034542084        1.9164945545        1.2422138540
 H          5.6177958601        2.9269180166       -0.1299440148
 O          3.6776809655        1.7792849666       -0.8412739527
 C          2.4333365012        1.2522305155       -1.1391910981
 O          1.8000540389        1.8945641394       -2.0024321345
 O          2.4670396000       -1.5572435997        1.1540825240
 C          0.6247490034       -0.3969157310       -0.8720012678
 C         -0.4250109155        0.2052473515        0.0251741956
 C         -0.3338841006        0.1026623185        1.4098913074
 C         -1.3092930595        0.6543269472        2.2202423759
 C         -2.3959094293        1.3115353440        1.6693585050
 C         -2.4980001906        1.4148119556        0.2890274205
 C         -1.5157476505        0.8633124572       -0.5233360274
 H         -1.5927520789        0.9615001016       -1.5978977567
 N         -3.6246335464        2.0515273329       -0.2726321061
 S         -5.1016203672        1.3419685813        0.0943242035
 O         -6.0143675548        1.7939362093       -0.9307458468
 O         -5.4575810996        1.6623849656        1.4526211783
 C         -4.7836220993       -0.4051673085       -0.0662325025
 C         -4.4512834050       -1.1438157955        1.0514802766
 C         -4.0980710956       -2.4743893448        0.8928533854
 C         -4.0831868093       -3.0402046590       -0.3722131964
 C         -4.4289294393       -2.2872193308       -1.4841091815
 C         -4.7756089400       -0.9544639795       -1.3332314674
 H         -5.0513255558       -0.3356021428       -2.1723912774
 H         -4.4198679702       -2.7319039673       -2.4663824672
 H         -3.7968730530       -4.0725783886       -0.4932259576
 H         -3.8289338143       -3.0629788735        1.7550321852
 H         -4.4782883333       -0.6688878713        2.0181658178
 H         -3.5482804865        2.1862341154       -1.2710765640
 H         -3.1700488035        1.7400722676        2.2853525444
 H         -1.2242667216        0.5707754487        3.2931590189
 H          0.5065625678       -0.4201006208        1.8402637527
 H          0.4592795615        0.0004232061       -1.8858850716
 C          0.5286185116       -1.9152100713       -0.9582159364
 C         -0.3475586132       -2.7434834670       -0.0713609573
 C         -0.7165515587       -2.5458020476       -1.5084718481
 H         -0.6184819386       -3.3748779255       -2.1923704821
 H         -1.5492067354       -1.8915071709       -1.7206373334
 H          0.0315217249       -3.7036769510        0.2427296192
 H         -0.9404833917       -2.2425410931        0.6773746850
 H          1.4708794282       -2.3639468467       -1.2538255063
