  62
        -98.93947857
 C          2.5740861748        0.8056899337        0.2364958877
 C          3.1150677505       -0.2357784532        1.0322744756
 C          3.3562545502       -1.5130489068        0.3534374065
 C          3.0395811692       -1.6454939555       -0.9472146464
 C          3.2393951658       -2.8781579608       -1.7864226730
 C          2.1064483289       -3.9059710956       -1.6596718016
 C          2.0748967138       -4.6784137663       -0.3401665195
 H          3.0604100571       -5.1022694840       -0.1442254364
 H          1.3811992640       -5.5106656796       -0.4740625715
 C          1.6193219532       -3.8475445039        0.8675861699
 H          0.8899163513       -4.4184728961        1.4469234229
 H          1.1086157622       -2.9469876767        0.5158452938
 C          2.7440534539       -3.4482006755        1.8235191259
 H          3.1654147085       -4.3439454182        2.2849857237
 H          2.3165193820       -2.8296394812        2.6168348437
 C          3.8828457344       -2.6559485099        1.1682822843
 H          4.4917372233       -3.3142602895        0.5492596403
 H          4.5091428498       -2.2388886693        1.9607033848
 H          2.2253875880       -4.6240850671       -2.4744008878
 H          1.1516539634       -3.3936116115       -1.8049491025
 H          4.1896885769       -3.3473620723       -1.5295184883
 H          3.2847460950       -2.5426372325       -2.8247680636
 O          2.4978434764       -0.6321163474       -1.6723182896
 C          2.2184678944        0.6025493017       -1.0986919221
 O          1.6742891073        1.4055997221       -1.8794151283
 O          3.3772004313       -0.1043742301        2.2580283181
 C          2.2644403837        2.1261479010        0.9217862741
 C          0.8437335773        2.5227061511        0.6080280819
 C          0.4793494063        3.7206047222        0.0095654242
 C         -0.8460832742        3.9756280681       -0.3002138254
 C         -1.8325580840        3.0472024873       -0.0239266174
 C         -1.4782897192        1.8503320023        0.5822997801
 C         -0.1555472645        1.6032675037        0.9045047673
 H          0.1164469892        0.6591009197        1.3638676046
 N         -2.4823670890        0.8807282789        0.8417704535
 S         -2.9486255278       -0.0043151415       -0.5256760585
 O         -2.0962862202       -1.1690847440       -0.6617283441
 O         -3.0245363924        0.8833774613       -1.6562462363
 C         -4.5896801152       -0.5112819304       -0.0478992162
 C         -4.8181464856       -1.8028850122        0.3834566163
 C         -6.0975987613       -2.1605742697        0.7802066665
 C         -7.1189944098       -1.2239545979        0.7434080388
 C         -6.8732035480        0.0704221850        0.3092429666
 C         -5.5971371320        0.4330277023       -0.0898884225
 H         -5.3602533467        1.4232109268       -0.4420538419
 H         -7.6700562118        0.7959800194        0.2809686200
 H         -8.1131545272       -1.5047855974        1.0534305455
 H         -6.2912972685       -3.1665061406        1.1163964285
 H         -3.9950632791       -2.4993317999        0.3900088064
 H         -2.1660931428        0.2054768336        1.5270352548
 H         -2.8614576879        3.2229061971       -0.2906672099
 H         -1.1110384934        4.9069429464       -0.7774749993
 H          1.2372599345        4.4428447428       -0.2460696756
 H          2.3212328052        1.8904314817        1.9983669759
 C          3.2796448309        3.2296072175        0.6707257204
 C          4.7019989811        2.9040301576        0.3282304393
 C          3.8120372949        3.5403367613       -0.6948232003
 H          3.9873981559        4.5749933746       -0.9513581801
 H          3.4571552764        2.9406779666       -1.5179745321
 H          5.4861104253        3.4985124567        0.7723922542
 H          4.9598189203        1.8622694182        0.2028833787
 H          3.1292374041        4.0739604845        1.3365088831
