  62
        -98.93486727
 C          2.1057952804        1.3078597994        0.3100201397
 C          2.7716113903        0.5274183893        1.2878229196
 C          4.0116367903       -0.1271598108        0.8611491496
 C          4.4470356104        0.0321991893       -0.4017684003
 C          5.6992746804       -0.5615586907       -0.9874463803
 C          5.5277998203       -2.0021482407       -1.4887836205
 C          5.4022220401       -3.0622563508       -0.3936939006
 H          5.5080427101       -4.0357193807       -0.8767036807
 H          6.2287548101       -2.9565963609        0.3097414395
 C          4.0693792001       -3.0330876308        0.3676000593
 H          3.3344869502       -2.4617496906       -0.2049707407
 H          3.6800202200       -4.0497563107        0.4595124192
 C          4.1588315300       -2.4527669209        1.7792455694
 H          3.1546301500       -2.4466789609        2.2110900093
 H          4.7874229299       -3.0949942510        2.4001190394
 C          4.7097740701       -1.0220061109        1.8403935896
 H          5.7836802001       -1.0244117410        1.6557668797
 H          4.5269023701       -0.6271868010        2.8428091996
 H          4.6501555803       -2.0439226305       -2.1382212805
 H          6.4028147303       -2.2420219707       -2.0972173104
 H          6.5030429203       -0.5239600009       -0.2516982502
 H          5.9741768005        0.0675622393       -1.8366968102
 O          3.7805096905        0.7863898294       -1.3126372503
 C          2.5833852905        1.4212929195       -0.9972143603
 O          2.0746645606        2.0320994296       -1.9515974003
 O          2.3447326702        0.3818258492        2.4659901496
 C          0.7923028004        1.9677156295        0.7142613096
 C         -0.2999579395        1.3916720196       -0.1519952005
 C         -0.8568341594        1.9703606698       -1.2852542905
 C         -1.8083771594        1.2903786599       -2.0284227206
 C         -2.2228404095        0.0206153899       -1.6752895808
 C         -1.6685134797       -0.5755698902       -0.5492632208
 C         -0.7318325197        0.1149444996        0.2029351793
 H         -0.2979879298       -0.3594587905        1.0745278493
 N         -2.0630660198       -1.8714037302       -0.1795297010
 S         -3.6833062498       -2.2730218601       -0.2645596911
 O         -3.8573703700       -3.3384639202        0.6976350188
 O         -4.0361482997       -2.5914164199       -1.6258522712
 C         -4.5595844597       -0.8098304701        0.2591839890
 C         -4.2956229798       -0.3088601503        1.5187445490
 C         -4.9470756797        0.8414223898        1.9325026091
 C         -5.8481111696        1.4674370799        1.0844199291
 C         -6.1064658996        0.9489703301       -0.1747335309
 C         -5.4551904096       -0.1998515799       -0.5950197610
 H         -5.6235278696       -0.6349196698       -1.5667336911
 H         -6.8093064995        1.4361767202       -0.8311101909
 H         -6.3519450796        2.3641223999        1.4089537192
 H         -4.7473712898        1.2460513896        2.9117324892
 H         -3.5942151599       -0.8221253804        2.1570263890
 H         -1.6382865799       -2.2076061104        0.6715552490
 H         -2.9438276795       -0.5245959400       -2.2623009809
 H         -2.2241559693        1.7578584701       -2.9080353106
 H         -0.5327455793        2.9372405498       -1.6236160204
 H          0.6128123303        1.5836118894        1.7313088496
 C          0.9489258005        3.4706695294        0.8894282398
 C          1.0783670507        4.4831542295       -0.2066762501
 C         -0.1474392494        4.4661287395        0.6570088598
 H         -0.2702267594        5.2615060495        1.3771168399
 H         -1.0733881694        4.1105306596        0.2345957897
 H          1.7935132807        5.2805750695       -0.0596826300
 H          1.0309429607        4.1443814596       -1.2280294201
 H          1.5796013605        3.6598319493        1.7555956499
