  62
        -98.93710985
 C         -2.6315668137       -0.0016569652        0.1824123124
 C         -2.1330487775        0.8035576724       -0.8687449315
 C         -1.7591921986        2.1900964811       -0.5196822893
 C         -1.8606957766        2.6094436932        0.7538941428
 C         -1.5744205832        3.9503137943        1.3989904330
 C         -0.8413067764        5.0462039538        0.6313809091
 C          0.6349442426        4.7546976110        0.3599136604
 H          1.0213105619        5.5294760237       -0.3058703731
 H          1.1796310243        4.8238951358        1.3048166362
 C          0.9431094043        3.3860552896       -0.2433577933
 H          2.0288243548        3.3003308625       -0.3511067849
 H          0.6378107035        2.5916004602        0.4417545942
 C          0.3279532462        3.1135952759       -1.6142227418
 H          0.6419966885        3.8850688542       -2.3213193132
 H          0.7261815947        2.1547949716       -1.9590746459
 C         -1.2057585146        3.0172598637       -1.6446449946
 H         -1.6641221378        4.0035033499       -1.6613395380
 H         -1.4892281350        2.5054907587       -2.5693957012
 H         -0.8900781015        5.9464267385        1.2501727381
 H         -1.3654120665        5.2708707176       -0.2928519970
 H         -2.5494778738        4.3389291195        1.7135141195
 H         -1.0220767505        3.7249060492        2.3169810267
 O         -2.3397307074        1.7928056161        1.7388599644
 C         -2.7097622341        0.4875310754        1.4874756867
 O         -3.1068652836       -0.1327536752        2.4963255806
 H         -0.4366577887       -1.0983211916       -0.7881702731
 C         -0.5465032335       -1.9718071000       -0.1639875883
 C         -1.7933042052       -2.3309514137        0.3240952579
 C         -1.8982711545       -3.4764169792        1.1047290652
 C         -0.7765344193       -4.2277345116        1.4063050365
 C          0.4735275806       -3.8343900086        0.9636556690
 C          0.5868348204       -2.6947388752        0.1757791348
 N          1.8346778304       -2.2457448979       -0.2852108822
 S          2.0725103360       -0.5680926867       -0.3195369180
 O          1.4095212659        0.0478238634        0.8068183650
 O          1.7290507130       -0.0840259904       -1.6315946826
 C          3.8431761311       -0.4903237814       -0.1130553743
 C          4.6502954297       -0.7224893829       -1.2111021757
 C          6.0262551932       -0.6987557779       -1.0481310221
 C          6.5696126400       -0.4447398890        0.2026321554
 C          5.7472772856       -0.2108503378        1.2944834067
 C          4.3699903608       -0.2355257486        1.1386382611
 H          3.6901703359       -0.0530243271        1.9556109435
 H          6.1717808294       -0.0096436018        2.2648301261
 H          7.6407693650       -0.4259648878        0.3268033262
 H          6.6684932094       -0.8771177491       -1.8953337482
 H          4.1815824384       -0.9045755222       -2.1641565143
 H          2.6123332258       -2.7276318517        0.1451874065
 H          1.3545666795       -4.3994606879        1.2276026405
 H         -0.8720972088       -5.1138248742        2.0152224212
 H         -2.8633482957       -3.7629515835        1.4950828421
 C         -3.0018632925       -1.4690673471        0.0360929221
 H         -3.7441649173       -1.6719563212        0.8219021011
 C         -3.6103788409       -1.8400006013       -1.3012432716
 C         -4.5503403108       -3.0040809520       -1.3799556444
 C         -5.0715023841       -1.6075769116       -1.5349538052
 H         -5.3869550845       -1.2737914855       -2.5116950125
 H         -5.6439017945       -1.1830327110       -0.7227993602
 H         -4.5091613862       -3.6374065688       -2.2525753998
 H         -4.7799665929       -3.5287678750       -0.4651212587
 H         -2.9416600259       -1.6730531055       -2.1352993596
 O         -2.0052351877        0.4160142791       -2.0610137398
