  62
        -98.94600225
 C         -1.1129541903       -1.5142506191       -0.2192690905
 C         -1.1884136900       -0.1082450190       -0.3789526396
 C         -2.2688169497        0.5645140408        0.3600348110
 C         -3.0576723997       -0.1471593795        1.1833135907
 C         -4.2101259794        0.4082785203        1.9682537112
 C         -5.5218890096        0.3137095411        1.1762579214
 C         -5.4204464297        0.8501837519       -0.2515011783
 H         -4.7470149100        0.2090908921       -0.8246805588
 H         -6.4110960399        0.7624863725       -0.7027448381
 C         -4.9398925094        2.3046228419       -0.3493425875
 H         -5.5730090794        2.8351642525       -1.0635997170
 H         -5.0562348891        2.7985939213        0.6160128528
 C         -3.4960364695        2.4638518018       -0.8291280776
 H         -3.3332159292        3.5181326319       -1.0675377070
 H         -3.3512138498        1.8924204223       -1.7490172080
 C         -2.4088712794        2.0488075210        0.1704164119
 H         -2.5784038491        2.5426965704        1.1300001422
 H         -1.4464451094        2.3868845910       -0.2238310881
 H         -6.2931759694        0.8621433310        1.7202069119
 H         -5.8211021599       -0.7358961988        1.1280883008
 H         -4.3078098494       -0.1703168702        2.8886426909
 H         -4.0005906491        1.4448973301        2.2256780318
 O         -2.9192509700       -1.4860270896        1.3596379199
 C         -1.9610432403       -2.1962407495        0.6583509393
 O         -1.9640969006       -3.4223174096        0.8943037085
 O         -0.4131606700        0.5744783812       -1.0994780894
 C         -0.0864097907       -2.3897240990       -0.9238069512
 C          1.2137624595       -2.3967673197       -0.1564282315
 C          1.7776001893       -3.5837277101        0.2958758277
 C          2.9595436094       -3.5695375709        1.0153414275
 C          3.5890418298       -2.3739140812        1.3119069981
 C          3.0305643900       -1.1820856608        0.8643876189
 C          1.8633502098       -1.2020366001        0.1171460792
 H          1.4362428700       -0.2741488297       -0.2250908402
 N          3.6362588603        0.0533923689        1.1370156696
 S          2.6747036407        1.3890443889        1.4529571606
 O          3.5418688611        2.2852256783        2.1943333310
 O          1.4498590807        1.0188171088        2.1260040806
 C          2.3417297406        2.1289018900       -0.1307820489
 C          3.1035296603        1.8034214305       -1.2337082393
 C          2.8331534602        2.4312671913       -2.4391977088
 C          1.8186263104        3.3715685115       -2.5194832681
 C          1.0689992607        3.6932091911       -1.3995818277
 C          1.3324752808        3.0675330003       -0.1923696382
 H          0.7657009010        3.2765562999        0.7017313921
 H          0.2754523009        4.4208902113       -1.4638842972
 H          1.6055128004        3.8527600122       -3.4611873477
 H          3.4111554700        2.1783865116       -3.3138375591
 H          3.8774421101        1.0590284002       -1.1438744599
 H          4.4394098204        0.0175650583        1.7476712294
 H          4.5006543499       -2.3602053518        1.8898689380
 H          3.3878703892       -4.4976300212        1.3625454569
 H          1.2735865990       -4.5183169199        0.0977297473
 H         -0.4956515309       -3.4091018889       -0.8972695418
 C          0.1506978192       -2.0038174381       -2.3711233010
 C          0.7030229387       -3.0280995177       -3.3142876517
 C         -0.7234590212       -2.5853132673       -3.4393121212
 H         -1.0013432112       -1.9592321767       -4.2736858208
 H         -1.4996398513       -3.2714257873       -3.1317771815
 H          1.4080987087       -2.7075217674       -4.0654055317
 H          0.8932448086       -4.0170232380       -2.9254137724
 H          0.4713563694       -0.9779527381       -2.4929557505
