  62
        -98.93801880
 C         -2.3907060473       -1.2101532033       -0.0969628925
 C         -3.1623430955       -0.4885050514        0.8398306081
 C         -4.0065005849        0.6019586608        0.3131667072
 C         -3.9870190254        0.8517748326       -1.0097107787
 C         -4.7225094840        1.9281393217       -1.7627341086
 C         -4.0814148788        3.3152278583       -1.5901910570
 C         -3.6495422527        3.6526035656       -0.1652430227
 H         -2.9505045487        2.8916860563        0.1878274918
 H         -3.1053085374        4.6002965987       -0.1979719648
 C         -4.7872274596        3.8027119296        0.8420048962
 H         -4.3422300132        4.1147386797        1.7905651698
 H         -5.4547988127        4.6012101513        0.5106201890
 C         -5.6234441468        2.5476530140        1.0990086235
 H         -6.3191397981        2.3679218924        0.2839977252
 H         -6.2303511077        2.7384007890        1.9890017099
 C         -4.8135364366        1.2876855167        1.3895387786
 H         -4.1113797138        1.4939520431        2.2058449830
 H         -5.4926549324        0.5211474272        1.7825844656
 H         -3.1925401796        3.3566907912       -2.2243808019
 H         -4.7857892100        4.0684523047       -1.9466061525
 H         -4.6800396605        1.6555890074       -2.8194213378
 H         -5.7670411317        1.9427188754       -1.4662296958
 O         -3.2105998395        0.1391724886       -1.8752933467
 C         -2.3975226173       -0.8975462611       -1.4559067188
 O         -1.7469650863       -1.4456532367       -2.3647085191
 H         -0.2338710803       -0.0311541612        0.7369847400
 C          0.4351433826       -0.7811669063        0.3313242677
 C         -0.0573830067       -2.0546110373        0.0721459363
 C          0.8174716622       -3.0095294020       -0.4287442311
 C          2.1396322409       -2.6857089855       -0.6812941560
 C          2.6185601957       -1.4115680064       -0.4406891707
 C          1.7563575604       -0.4515258291        0.0732352955
 N          2.2314868347        0.8508542801        0.3139830321
 S          3.6004907708        1.0184553790        1.2745290121
 O          3.7164340699       -0.0674364800        2.2203888138
 O          3.5099574787        2.3503634529        1.8321666700
 C          4.9495882961        0.9658541237        0.1145784200
 C          4.9655855968        1.8952156575       -0.9069125680
 C          6.0122343200        1.8731065574       -1.8147112267
 C          7.0206157583        0.9296240783       -1.6845291726
 C          6.9918907823        0.0058369424       -0.6510358394
 C          5.9470120739        0.0216587266        0.2598786595
 H          5.8793225027       -0.6798155689        1.0760551220
 H          7.7770095383       -0.7263057967       -0.5514632489
 H          7.8335531853        0.9146279644       -2.3931562383
 H          6.0378647924        2.5899586202       -2.6195805288
 H          4.1651026646        2.6134561677       -0.9699494315
 H          1.5123857315        1.4917170688        0.6172557542
 H          3.6446712876       -1.1536857998       -0.6455021803
 H          2.8058806132       -3.4371011867       -1.0766257232
 H          0.4634707712       -4.0079485779       -0.6257560789
 C         -1.5052395546       -2.3421528033        0.3879061186
 H         -1.6160548015       -2.3519530631        1.4832569283
 C         -1.9944835651       -3.6657077195       -0.1620145972
 C         -1.7989658037       -4.9301045667        0.6184793416
 C         -3.1662627757       -4.3301952061        0.4942220229
 H         -3.8949638819       -4.8252256560       -0.1298742860
 H         -3.5924228803       -3.8411539187        1.3582828040
 H         -1.2991297329       -4.8569567329        1.5726488557
 H         -1.5910303681       -5.8419325675        0.0792493648
 H         -1.9330413808       -3.7132857252       -1.2434119331
 O         -3.1438742276       -0.7335146499        2.0783009029
