  62
        -98.94481449
 C         -1.9277322739       -0.9284064161       -0.3304727432
 C         -3.0433034434       -1.2262527793        0.4922302090
 C         -4.3330225473       -0.6757683318        0.0579532148
 C         -4.3863998247        0.0661032006       -1.0633448045
 C         -5.6210905644        0.7386279592       -1.5879154609
 C         -5.7537574817        2.1652033191       -1.0365492970
 C         -5.5828411037        2.2607766639        0.4796278969
 H         -4.5540847705        2.0004116176        0.7396993780
 H         -5.7279603994        3.3071007123        0.7572496089
 C         -6.5482150522        1.3795731932        1.2847437118
 H         -7.3902434160        1.0840316230        0.6577735896
 H         -6.9511312178        1.9675950094        2.1120764131
 C         -5.9083280515        0.1314838686        1.8955143721
 H         -6.6132968331       -0.2948117228        2.6141847616
 H         -5.0089381271        0.4146687966        2.4481114306
 C         -5.5364106005       -0.9793921279        0.9053711424
 H         -5.2769234148       -1.8688684329        1.4868082899
 H         -6.3985302614       -1.2177926895        0.2792877287
 H         -6.7335642281        2.5544813332       -1.3192793441
 H         -4.9910788525        2.7906919768       -1.5064786431
 H         -6.4939534533        0.1493129081       -1.3137007798
 H         -5.5521098549        0.7847779330       -2.6760765418
 O         -3.2976105154        0.3280659552       -1.8288943936
 C         -2.0413469018       -0.1495516218       -1.4820823700
 O         -1.1389173399        0.1790897663       -2.2756970095
 O         -2.9622570539       -1.9215213725        1.5394687881
 C         -0.5677240896       -1.4566952439        0.0953235243
 C          0.2867043144       -0.2897926945        0.5216592612
 C          0.1193736401        0.2495190938        1.7940748097
 C          0.8663118716        1.3373143902        2.2067852224
 C          1.7929731720        1.9155835523        1.3560795748
 C          1.9591048847        1.3901593732        0.0824746636
 C          1.2194032597        0.2885381800       -0.3253803687
 H          1.3525213922       -0.1003204211       -1.3224466154
 N          2.9112315917        1.9708914450       -0.7857712363
 S          4.5072935044        1.7945763850       -0.3072359813
 O          4.7400938737        2.6104552010        0.8571057462
 O          5.3060446370        2.0974478967       -1.4729170614
 C          4.6498097689        0.0677815723        0.1153257972
 C          4.3659497228       -0.3370517950        1.4041311966
 C          4.3879850756       -1.6906844887        1.6994162174
 C          4.6901807312       -2.6104043665        0.7072571177
 C          4.9766009153       -2.1869322105       -0.5815318960
 C          4.9495545717       -0.8355212507       -0.8848003261
 H          5.1681139203       -0.4639735601       -1.8732816887
 H          5.2159858734       -2.9048063381       -1.3496904697
 H          4.7033647952       -3.6637419446        0.9391660071
 H          4.1654055448       -2.0223064172        2.7008930055
 H          4.1399681796        0.4084924636        2.1485420098
 H          2.8084144534        1.6560739025       -1.7405790374
 H          2.3936351247        2.7575498036        1.6604842601
 H          0.7260619373        1.7412643275        3.1980376636
 H         -0.6120562269       -0.1944531948        2.4550174760
 H         -0.7646873718       -2.0750247289        0.9813558260
 C          0.0771296940       -2.3196252905       -0.9691780292
 C          1.2854836711       -3.1319561021       -0.6128646476
 C         -0.0256647506       -3.8106426096       -0.8688157068
 H         -0.1443855251       -4.3796230468       -1.7787263497
 H         -0.5645726494       -4.2187876951       -0.0265683576
 H          2.0719452868       -3.2354254710       -1.3444145209
 H          1.6396804973       -3.0725456461        0.4049924522
 H          0.0301338446       -1.8863636376       -1.9608837057
