  62
        -98.93929498
 C         -1.5795598107       -0.2795318039       -0.6572374414
 C         -2.8460680122       -0.8081623243       -1.0025034235
 C         -3.9287553345       -0.6250793909       -0.0211817033
 C         -3.6538508939       -0.0150791422        1.1447209890
 C         -4.6124802973        0.3084197723        2.2572283179
 C         -5.1671303557        1.7344298007        2.0991719171
 C         -6.4106435388        1.8481144393        1.2180985369
 H         -7.2630867514        1.4125283932        1.7435885568
 H         -6.6175534870        2.9124136005        1.0844976814
 C         -6.2986294322        1.1920219722       -0.1605919882
 H         -7.0540245472        1.6421751596       -0.8075526870
 H         -5.3237495479        1.4168479452       -0.5967703278
 C         -6.5173320089       -0.3278868879       -0.1254024755
 H         -7.2664502551       -0.6025223812       -0.8709162396
 H         -6.9304442932       -0.6059503740        0.8440400016
 C         -5.2711406539       -1.1767192325       -0.4177990206
 H         -5.3939016610       -2.1619372818        0.0446384425
 H         -5.1918973989       -1.3475947204       -1.4960216056
 H         -4.3684095291        2.3603822611        1.6930701023
 H         -5.4163597444        2.1247256643        3.0880410933
 H         -4.0389073349        0.2587125023        3.1853234442
 H         -5.4137589027       -0.4232435504        2.3014954218
 O         -2.4139679185        0.4558920699        1.4502226721
 C         -1.3505498603        0.3454047675        0.5688661967
 O         -0.2896450279        0.8437071826        0.9885278087
 O         -3.0671597377       -1.4037691738       -2.0917305810
 C         -0.4342545534       -0.4539889135       -1.6414273167
 C          0.5269291402       -1.4719113729       -1.0775523419
 C          0.1298652174       -2.8053617785       -1.0036132410
 C          0.9727989516       -3.7624585455       -0.4736928361
 C          2.2221002575       -3.4082704182        0.0081681979
 C          2.6249757097       -2.0810224438       -0.0541721439
 C          1.7832741063       -1.1258750452       -0.6086122049
 H          2.1131339880       -0.1042613491       -0.6598216198
 N          3.8924588389       -1.6809353983        0.4064015732
 S          3.9713152451       -0.4096455700        1.5073014484
 O          5.2865174289       -0.5432763451        2.1016585941
 O          2.8599384706       -0.4439462840        2.4283866826
 C          3.9476919072        1.0607795601        0.5058906772
 C          5.0124115233        1.2731995695       -0.3481558185
 C          5.0161222690        2.4075894468       -1.1433626490
 C          3.9625779288        3.3065720662       -1.0672316902
 C          2.9047545510        3.0799524509       -0.2000356591
 C          2.8916690644        1.9459175362        0.5980818279
 H          2.0676079010        1.7189442279        1.2574277764
 H          2.0813696243        3.7746316917       -0.1433993859
 H          3.9627702656        4.1888042709       -1.6881627009
 H          5.8357559429        2.5869832257       -1.8202796990
 H          5.8123027207        0.5520529192       -0.3700022595
 H          4.4725290655       -2.4452721842        0.7242753917
 H          2.8787694018       -4.1539692081        0.4311641622
 H          0.6546928096       -4.7932976541       -0.4272817299
 H         -0.8514019058       -3.0779797894       -1.3670542523
 H         -0.8919813513       -0.8866389913       -2.5423104664
 C          0.2140515679        0.8651787384       -2.0022397213
 C          1.1187706615        0.9433245954       -3.1945950852
 C         -0.2298664001        1.5952157526       -3.2325718473
 H         -0.2844311252        2.6728109774       -3.1991057485
 H         -1.0020925999        1.1381528550       -3.8340184975
 H          1.9945436999        1.5714353519       -3.1333067021
 H          1.2616911052        0.0412070082       -3.7697622466
 H          0.4684902695        1.4638412307       -1.1363988427
