  62
        -98.94952286
 C         -1.6505010717       -0.7870776866       -0.6995080984
 C         -1.5217447517       -1.5695230800        0.4730805975
 C         -0.5522423016       -2.6731315139        0.4037874450
 C          0.1632087012       -2.8538223123       -0.7206383454
 C          1.1783094668       -3.9403028359       -0.9311571421
 C          2.5951063142       -3.4979495591       -0.5430148433
 C          2.6919204470       -2.8521154727        0.8392596115
 H          3.7472465010       -2.6365977503        1.0248811485
 H          2.1715996999       -1.8914759082        0.8405768290
 C          2.1364772555       -3.7081917903        1.9853339182
 H          2.0723002356       -4.7530884252        1.6775627265
 H          2.8329778457       -3.6576795057        2.8250031203
 C          0.7756817531       -3.2418547653        2.5072977430
 H          0.8053496432       -2.1612171500        2.6735713350
 H          0.5975642514       -3.7207602346        3.4743020882
 C         -0.4276105052       -3.5598184967        1.6100034106
 H         -0.4000573742       -4.6120310875        1.3161998673
 H         -1.3345153447       -3.3904961743        2.1982621113
 H          3.2473371067       -4.3730281006       -0.5795624211
 H          2.9540064353       -2.7790314800       -1.2835155222
 H          0.8886858910       -4.8103992196       -0.3446298944
 H          1.1712717083       -4.2097765249       -1.9891345205
 O          0.0486552855       -2.0486970991       -1.8087690239
 C         -0.8519597587       -0.9941988426       -1.8227312292
 O         -0.8478178718       -0.3285510382       -2.8779055744
 O         -2.1996559886       -1.3753332590        1.5161833252
 C         -2.6305153823        0.3732372973       -0.7367797311
 C         -2.2591701091        1.3699008715        0.3341876515
 C         -3.1683294519        1.9418816341        1.2137128204
 C         -2.7330786741        2.8203511449        2.1916092718
 C         -1.3921255744        3.1308099451        2.3237156724
 C         -0.4764763919        2.5736793042        1.4377761025
 C         -0.9207565878        1.7264284336        0.4377372642
 H         -0.2091855834        1.2998054042       -0.2540938804
 N          0.8938600587        2.8616652444        1.5229824063
 S          2.0024315621        1.6596050163        1.1590977397
 O          1.5149431790        0.3483588400        1.5136595224
 O          3.2180466728        2.0844515844        1.8232402962
 C          2.2381643353        1.7976102742       -0.5991317794
 C          2.4565429730        3.0504677808       -1.1372565370
 C          2.6550394655        3.1650056947       -2.5034864933
 C          2.6342904909        2.0323975891       -3.3037973068
 C          2.4216006257        0.7809605552       -2.7476687699
 C          2.2240684457        0.6613341138       -1.3817669060
 H          2.0390439127       -0.2935401602       -0.9146697093
 H          2.3893359433       -0.1004980802       -3.3679324919
 H          2.7810603769        2.1227349938       -4.3685201581
 H          2.8207757366        4.1359300186       -2.9419432516
 H          2.4630452288        3.9064599106       -0.4833539438
 H          1.1700240406        3.4034948649        2.3288709765
 H         -1.0526456060        3.7927810308        3.1058017957
 H         -3.4475933554        3.2549191123        2.8742867745
 H         -4.2140299783        1.6911396589        1.1438258495
 H         -2.4925115207        0.8560081677       -1.7156396203
 C         -4.0553162609       -0.1282652936       -0.6344088532
 C         -5.1750737580        0.6494962896       -1.2563563566
 C         -4.7305721911       -0.6438478162       -1.8684629760
 H         -5.3741866714       -1.5063400974       -1.7821168503
 H         -4.1690481218       -0.6090761272       -2.7908581894
 H         -6.1288845415        0.6737939223       -0.7512626082
 H         -4.9230958784        1.5647558829       -1.7701096657
 H         -4.2463407129       -0.6503789083        0.2960212273
