  62
        -98.92825143
 C         -2.4912039798       -0.2781531285       -0.6734366796
 C         -2.3091183698       -0.8928897087        0.5871575103
 C         -1.6783296601       -2.2258996289        0.5806731501
 C         -1.2864864705       -2.7577074989       -0.5896451200
 C         -0.5278004708       -4.0376124891       -0.8111490502
 C          0.9877948892       -3.7667127995       -0.8180512304
 C          1.6628420694       -3.8739752998        0.5475005395
 H          1.6436728292       -4.9141226898        0.8814217694
 H          2.7082617995       -3.5875034101        0.4118446393
 C          1.0453622798       -2.9878913997        1.6319935996
 H          1.7923958200       -2.8409546700        2.4151733095
 H          0.8196812200       -2.0081832696        1.2049800897
 C         -0.2161721502       -3.5972578094        2.2606628698
 H         -0.1194265901       -3.5867672895        3.3485485298
 H         -0.2917469606       -4.6442868694        1.9668939397
 C         -1.5277591801       -2.8726799590        1.9314329600
 H         -2.3627942503       -3.5676806288        2.0740973701
 H         -1.6774494198       -2.0543872290        2.6430461201
 H          1.1495999994       -2.7614142395       -1.2174538804
 H          1.4693306789       -4.4751361496       -1.4959107206
 H         -0.8228072711       -4.4076143089       -1.7954241302
 H         -0.7927475509       -4.7801163491       -0.0638536702
 O         -1.4931266505       -2.1352210487       -1.7847504799
 C         -2.0699623701       -0.8833853886       -1.8547528597
 O         -2.1644827802       -0.4194913184       -3.0131540197
 O         -2.6398993194       -0.3517379887        1.6735540404
 C         -3.0233447594        1.1497010316       -0.7579513594
 C         -2.1387936690        1.9910882613        0.1362168005
 C         -2.4995314286        2.8600219613        1.1552674207
 C         -1.5271722883        3.5117814310        1.9007932406
 C         -0.1821173684        3.2970422306        1.6795984703
 C          0.1959186212        2.4256913806        0.6611764702
 C         -0.7762269991        1.8319328109       -0.1189169397
 H         -0.4688893194        1.1910736709       -0.9331309398
 N          1.5502069411        2.1059776802        0.4588634300
 S          2.0419424706        1.0205015902       -0.7202323802
 O          1.9246456905        1.6092648103       -2.0396286101
 O          1.3809285003       -0.2404290496       -0.5097200302
 C          3.7636571706        0.8754623097       -0.2834462005
 C          4.1344214105       -0.0871446805        0.6356108694
 C          5.4677631205       -0.1892156709        0.9993787792
 C          6.4029899507        0.6706364889        0.4429179191
 C          6.0167294808        1.6310664391       -0.4798917008
 C          4.6848067708        1.7369785595       -0.8485340306
 H          4.3418785008        2.4574499096       -1.5737452704
 H          6.7465676509        2.2954531989       -0.9137205808
 H          7.4401093507        0.5892687986        0.7275130189
 H          5.7714424904       -0.9377709010        1.7132848191
 H          3.3715485904       -0.7366914903        1.0335052194
 H          2.1950500613        2.8702530201        0.5927718299
 H          0.5667246618        3.7800562404        2.2871205403
 H         -1.8332973480        4.1857888110        2.6867495207
 H         -3.5304528685        3.0340531216        1.4039599709
 H         -2.8156095995        1.4713544516       -1.7938872094
 C         -4.5371606994        1.1285400620       -0.6231984691
 C         -5.2972876592        1.1888634821        0.6638212810
 C         -5.3989359490        2.3178382322       -0.3195380589
 H         -6.3198073791        2.4191459225       -0.8750999488
 H         -4.9233371687        3.2595813321       -0.1010912389
 H         -6.1467367193        0.5299626224        0.7724001711
 H         -4.7335945090        1.3095190919        1.5738683409
 H         -4.9366822697        0.4444192322       -1.3701367291
