  62
        -98.94729894
 C         -2.2972881901       -0.7004360991        0.2256008129
 C         -1.6092939802       -0.0095643153       -0.8014020879
 C         -1.8537792028        1.4371972155       -0.8768733582
 C         -2.5998847179        2.0389973743        0.0659928520
 C         -2.9587201260        3.4991054055        0.1213380521
 C         -1.8682919795        4.3866096338        0.7358172396
 C         -0.6618896923        4.6503495222       -0.1654391748
 H         -1.0069757825        4.9925183065       -1.1421065048
 H         -0.0982194246        5.4683540957        0.2876915709
 C          0.2769311362        3.4489488478       -0.3415998863
 H          0.1114902585        2.7228726286        0.4584014869
 H          1.3139783786        3.7823158389       -0.2462209640
 C          0.1583520518        2.7380853186       -1.6887752587
 H          0.8540861326        1.8966384459       -1.6813482298
 H          0.4595806564        3.4187532884       -2.4889493017
 C         -1.2420629557        2.2027536022       -2.0131198255
 H         -1.8976373414        3.0266479353       -2.2974416197
 H         -1.1542809370        1.5185225497       -2.8610627493
 H         -2.3287936318        5.3466085962        0.9815326047
 H         -1.5295464974        3.9302410662        1.6692734229
 H         -3.1988121044        3.8571892551       -0.8805318470
 H         -3.8547536891        3.5736141846        0.7416210304
 O         -3.1526480831        1.3567364937        1.1045239701
 C         -3.0178271848       -0.0171239259        1.2075185174
 O         -3.5799125592       -0.5115732359        2.2071925768
 O         -0.8451304929       -0.5633386255       -1.6338049407
 C         -2.1818253290       -2.2068818285        0.3960502920
 C         -0.7309941354       -2.6122797800        0.3140821381
 C         -0.2335124277       -3.5865791268       -0.5412168150
 C          1.1197680150       -3.8799506027       -0.5554306151
 C          2.0045397991       -3.1921147328        0.2548339022
 C          1.5150551911       -2.2119646887        1.1110039158
 C          0.1556612231       -1.9557871568        1.1589370478
 H         -0.2135943224       -1.1949559637        1.8319363665
 N          2.3722520211       -1.4448341781        1.9291954888
 S          2.4363085051        0.1999161739        1.6026092197
 O          3.3928400877        0.7359680271        2.5477972406
 O          1.1117355041        0.7616238355        1.6504082859
 C          3.1260501691        0.2929453096       -0.0408360904
 C          2.3636325735       -0.0983663666       -1.1239011206
 C          2.9452084608       -0.0898033171       -2.3837683348
 C          4.2640926556        0.3056344622       -2.5400254148
 C          5.0154920301        0.6948635449       -1.4410396339
 C          4.4448164458        0.6829355437       -0.1790634041
 H          4.9888092484        0.9734962288        0.7052213110
 H          6.0413276304        1.0034012374       -1.5627087798
 H          4.7075247427        0.3100795311       -3.5232394516
 H          2.3517964470       -0.3930734170       -3.2314646284
 H          1.3349169459       -0.3965907295       -0.9899915159
 H          3.3157697188       -1.8054242145        1.9795504351
 H          3.0631843134       -3.4017449339        0.2221454808
 H          1.4932165277       -4.6404341854       -1.2240565657
 H         -0.9005853667       -4.1025466236       -1.2119379245
 H         -2.5198087138       -2.3975973346        1.4286835008
 C         -3.0946232843       -3.0142054583       -0.5149898360
 C         -4.3594945083       -2.4232154041       -1.0609175102
 C         -3.2192414886       -2.7331951249       -1.9812290193
 H         -3.3218443200       -3.5709253455       -2.6554666939
 H         -2.6435598171       -1.9148358522       -2.3821505197
 H         -5.2407162937       -3.0459673376       -1.0996223567
 H         -4.5667885201       -1.3876582812       -0.8312859865
 H         -3.1478031210       -4.0554208770       -0.2117589220
