  62
        -98.94484813
 C          1.9241814384       -0.2897251751       -0.0152906311
 C          2.9734242792       -0.5763623244       -0.9248234420
 C          4.2050152253        0.2054281219       -0.7595110432
 C          4.2575588466        1.1536265482        0.1937116482
 C          5.4615521105        1.9955101470        0.4996921982
 C          6.3413646929        1.3402215392        1.5735434193
 C          6.6578116756       -0.1302129035        1.3003850698
 H          7.3088679638       -0.4773910246        2.1055964973
 H          5.7343634590       -0.7105713630        1.3607108303
 C          7.3334649606       -0.3935631190       -0.0525941957
 H          7.7552083005        0.5333909113       -0.4429121562
 H          8.1626430527       -1.0877598536        0.0994949847
 C          6.4181256623       -1.0176454902       -1.1075574907
 H          7.0411367657       -1.3597068353       -1.9382362400
 H          5.9217273768       -1.8960685249       -0.6877324433
 C          5.3451420426       -0.0908465438       -1.6928323266
 H          5.8084476528        0.8346404928       -2.0409425156
 H          4.9020240287       -0.5982165390       -2.5547304767
 H          5.8235161718        1.4067878921        2.5332104918
 H          7.2713532630        1.9065901955        1.6498593581
 H          6.0350712460        2.1447728078       -0.4131290923
 H          5.1189044406        2.9651669535        0.8650301124
 O          3.2204461097        1.4242763877        1.0251922762
 C          2.0316589522        0.7117639536        0.9497268122
 O          1.1778968065        1.0635852865        1.7861216099
 H         -1.3230580114        0.2789483299        1.2238786690
 C         -1.3580591120        0.4645968447        0.1620614097
 C         -0.4380887905       -0.1466621559       -0.6757104202
 C         -0.4907292928        0.1321250613       -2.0385107798
 C         -1.4395995342        0.9988119985       -2.5482016800
 C         -2.3541276140        1.6107351974       -1.7080639661
 C         -2.3023477942        1.3457422731       -0.3468472322
 N         -3.2413440571        1.9597208572        0.5123567292
 S         -4.8326175240        1.4916062375        0.2727982622
 O         -5.3053656652        2.0523322290       -0.9672589806
 O         -5.5452626050        1.8853619560        1.4668979125
 C         -4.7494607533       -0.2856442430        0.1504120838
 C         -4.5729033175       -0.8703968695       -1.0873921152
 C         -4.4098324081       -2.2444936999       -1.1601210708
 C         -4.4253354534       -3.0051820187       -0.0014227336
 C         -4.6088105325       -2.4027896949        1.2338301549
 C         -4.7650536818       -1.0287366735        1.3138978481
 H         -4.9122234688       -0.5213542851        2.2540094012
 H         -4.6257251712       -2.9984851865        2.1324551491
 H         -4.2944247355       -4.0742344509       -0.0605441860
 H         -4.2669321388       -2.7152486414       -2.1194836166
 H         -4.5712545927       -0.2452499684       -1.9649415075
 H         -3.0001465647        1.8570855429        1.4883073712
 H         -3.1091728447        2.2819400390       -2.0846789136
 H         -1.4682456474        1.2020691567       -3.6080114615
 H          0.2305944893       -0.3365815943       -2.6932642723
 C          0.6295801648       -1.0741618399       -0.1527129171
 H          0.8311344355       -1.8274648872       -0.9260508151
 C          0.2392038241       -1.7805225569        1.1289009480
 C         -0.8626119165       -2.7962410047        1.0919037339
 C          0.5557610675       -3.2353856996        1.2933698259
 H          0.8535904245       -3.5893341173        2.2690375670
 H          1.0584400807       -3.7330561535        0.4772329787
 H         -1.5431442860       -2.8498677254        1.9275734945
 H         -1.3264848524       -2.9891680133        0.1365571855
 H          0.3225811711       -1.1535788138        2.0083088136
 O          2.8820227519       -1.4461377583       -1.8313819118
