  62
        -98.93655041
 C          1.8068225292        1.2330015656       -0.0577249947
 C          2.4633885086        0.5324132985        0.9780935126
 C          3.6285948963       -0.2853311376        0.5924456690
 C          3.9989112823       -0.3222654390       -0.7004470690
 C          5.1385538276       -1.0791293654       -1.3347648345
 C          6.4840995000       -1.0495615351       -0.5934390609
 C          6.8617204185       -2.3913795066        0.0366631378
 H          6.5790655129       -3.1904037067       -0.6520541861
 H          7.9472002544       -2.4301194374        0.1518337364
 C          6.2426131153       -2.6632069620        1.4066017467
 H          6.4731518262       -3.6971212567        1.6741914335
 H          6.7178354381       -2.0215035198        2.1517391855
 C          4.7284691491       -2.4609427833        1.4916593959
 H          4.2407782923       -2.8490253854        0.5978474956
 H          4.3603530238       -3.0489895309        2.3352965313
 C          4.3156220878       -0.9997572408        1.7244570587
 H          5.1841306606       -0.4126548983        2.0364848887
 H          3.6046176822       -0.9475329110        2.5550680693
 H          7.2570403180       -0.7898401158       -1.3185190470
 H          6.4744206891       -0.2650789200        0.1616312699
 H          4.8233070702       -2.1140958794       -1.4903432124
 H          5.2521133231       -0.6378201680       -2.3275942341
 O          3.3183992682        0.3516567131       -1.6718012402
 C          2.2118033613        1.1344121346       -1.3881100927
 O          1.6942479598        1.6752082403       -2.3825045702
 O          2.0856703922        0.5774322617        2.1813426902
 C          0.6023025674        2.0920695266        0.2800867968
 C         -0.6263202527        1.5644092797       -0.4197752143
 C         -1.5243289699        2.3723126479       -1.1040802928
 C         -2.6305617639        1.8201516049       -1.7279316081
 C         -2.8715779772        0.4603283889       -1.6751838850
 C         -1.9903936446       -0.3547204370       -0.9746210364
 C         -0.8857009084        0.2006091323       -0.3483844832
 H         -0.1994826097       -0.4375727790        0.1947194977
 N         -2.2333689659       -1.7361900732       -0.8982430221
 S         -3.7974647651       -2.2457678690       -0.5940428733
 O         -3.6567931241       -3.5298043059        0.0564466806
 O         -4.5565320791       -2.2432472719       -1.8198227286
 C         -4.4737211403       -1.0411506519        0.5355595254
 C         -3.8299729030       -0.8462588231        1.7416228844
 C         -4.3228435920        0.1064992693        2.6180775301
 C         -5.4458671415        0.8443274068        2.2755883902
 C         -6.0841511438        0.6328748700        1.0635925326
 C         -5.5940340850       -0.3173147774        0.1819181435
 H         -6.0563813668       -0.5113695218       -0.7721611985
 H         -6.9580572775        1.2066803808        0.8006889428
 H         -5.8245011103        1.5876246665        2.9592550283
 H         -3.8264366316        0.2718006897        3.5609325400
 H         -2.9608592846       -1.4380609135        1.9816235970
 H         -1.5636248255       -2.2423143295       -0.3385773841
 H         -3.7166804026        0.0139585676       -2.1735683076
 H         -3.3127702484        2.4586774497       -2.2677197831
 H         -1.3536345096        3.4345091225       -1.1598274747
 H          0.4541031606        1.9715251124        1.3636664869
 C          0.8909309456        3.5492309340       -0.0121573971
 C          0.2199577589        4.6270646138        0.7842323675
 C          1.6774063439        4.3439441452        0.9855306460
 H          2.4000279221        5.0584602110        0.6208031755
 H          1.9824919966        3.8400186773        1.8911339169
 H         -0.0578316343        5.5417195757        0.2826749917
 H         -0.4658737586        4.3219877203        1.5597876948
 H          1.0877324271        3.7314315551       -1.0626004008
