  62
        -98.94142294
 C         -2.4472990146       -1.0020829427       -0.5602250558
 C         -3.4281577167       -0.4357735575        0.2973151613
 C         -3.8546519678        0.9320706352       -0.0103125591
 C         -3.3272887280        1.5693602973       -1.0708457218
 C         -3.6637782564        2.9627868092       -1.5269729528
 C         -2.8859124611        4.0604706278       -0.7880357139
 C         -3.3259377692        4.3086484867        0.6553593181
 H         -2.8588575358        5.2418529406        0.9761589473
 H         -4.4059015493        4.4567850162        0.6851002178
 C         -2.9295315366        3.1981417144        1.6386742309
 H         -2.1424173987        2.5811063458        1.1966509128
 H         -2.5075073982        3.6452079668        2.5418856243
 C         -4.0837103413        2.2962022306        2.0775637977
 H         -3.6798892178        1.5239444100        2.7374105548
 H         -4.8084248663        2.8818955177        2.6474407196
 C         -4.8176084774        1.5989385969        0.9246669362
 H         -5.4372914123        2.3147839226        0.3852698091
 H         -5.4613820752        0.8239507912        1.3475750670
 H         -1.8225133191        3.8081029678       -0.8049581348
 H         -3.0169806249        4.9881454650       -1.3499889590
 H         -4.7345418461        3.1366106610       -1.4175385332
 H         -3.4080854190        3.0135652155       -2.5874707782
 O         -2.4092800021        0.9873654395       -1.8838507396
 C         -1.9213498515       -0.2879952828       -1.6367465530
 O         -1.0489629051       -0.6446367654       -2.4558736481
 O         -3.9292215515       -1.0538033899        1.2740829720
 C         -1.9675237052       -2.4010650289       -0.2055898153
 C         -0.6838961391       -2.3096051713        0.5851443541
 C         -0.6349447604       -2.6866228399        1.9218503015
 C          0.5319285619       -2.5440129695        2.6531658471
 C          1.6704476093       -2.0165567965        2.0703009074
 C          1.6277086725       -1.6318798247        0.7370535292
 C          0.4639853277       -1.7918761502        0.0015328447
 H          0.4360546700       -1.4746932521       -1.0307891540
 N          2.7793032785       -1.0604830341        0.1361237264
 S          3.1100317345        0.5097746967        0.6775067689
 O          3.2769326176        0.4713951618        2.1077449047
 O          2.1130559816        1.4347952340        0.1771151878
 C          4.6803287338        0.8087811411       -0.1090685686
 C          5.8196170362        0.2884939360        0.4741147607
 C          7.0404944405        0.4842347337       -0.1510792044
 C          7.1010168881        1.1912348798       -1.3428859916
 C          5.9486810757        1.7075225435       -1.9157502906
 C          4.7239753678        1.5139504393       -1.2958664079
 H          3.8033783175        1.9030789876       -1.7015167278
 H          5.9979573146        2.2585078307       -2.8412294129
 H          8.0521916837        1.3429668070       -1.8281561244
 H          7.9390980252        0.0856922384        0.2913372395
 H          5.7242142726       -0.2468769730        1.4039591287
 H          2.6552063968       -1.0031903674       -0.8682603868
 H          2.5761289681       -1.8733778472        2.6357437041
 H          0.5528836056       -2.8393560682        3.6913022311
 H         -1.5275128111       -3.0719444427        2.3932292288
 H         -2.7408706320       -2.8091649921        0.4590305500
 C         -1.8237976096       -3.3241341217       -1.3984101215
 C         -1.8322804211       -4.8053182244       -1.1722081124
 C         -2.9996423264       -4.1417910700       -1.8375960198
 H         -3.1508558410       -4.2968689754       -2.8952224991
 H         -3.9169537942       -4.0392300521       -1.2763469268
 H         -1.1796223768       -5.4206473014       -1.7719599695
 H         -1.9585476029       -5.1547374412       -0.1587242315
 H         -1.1749398124       -2.9350371656       -2.1718002849
