  62
        -98.93940916
 C         -1.9617511929       -0.2107156461       -0.4895389726
 C         -1.2625506489       -1.2219244159       -1.1917546197
 C         -0.9818903731       -2.4717372758       -0.4635862539
 C         -1.3779838420       -2.5759005204        0.8174891789
 C         -1.1885918121       -3.7658092353        1.7177920183
 C          0.2270778088       -3.8349266035        2.3300562641
 C          1.3380997169       -3.2415438218        1.4632067796
 H          1.0475207371       -2.2297287537        1.1722659446
 H          2.2290747984       -3.1317287067        2.0886787666
 C          1.7310648337       -4.0680387027        0.2369071960
 H          2.3919188865       -3.4566599436       -0.3830503998
 H          2.3048613332       -4.9341273859        0.5773753587
 C          0.5831452128       -4.5936241722       -0.6226415871
 H         -0.0196453808       -5.2853064060       -0.0396594136
 H          1.0265371486       -5.1737776371       -1.4375555211
 C         -0.2981355083       -3.5352319199       -1.2855608674
 H         -1.0794310325       -4.0516645716       -1.8573124277
 H          0.2966275041       -2.9855311168       -2.0228246487
 H          0.4606688258       -4.8734920320        2.5696756899
 H          0.2157237169       -3.2664488240        3.2625289464
 H         -1.9152338146       -3.6732758629        2.5274855006
 H         -1.4240016040       -4.6694878936        1.1602546820
 O         -1.9912336607       -1.5586151455        1.4777534630
 C         -2.2640148866       -0.3443495974        0.8670470130
 O         -2.7813982763        0.4950552657        1.6275293735
 O         -0.8790138203       -1.0860669483       -2.3857205884
 C         -2.2128446895        1.1014061640       -1.2163627771
 C         -1.6102021112        2.2140854136       -0.3979976695
 C         -2.3152587320        3.2925842736        0.1158879540
 C         -1.6759428273        4.2147874742        0.9276424301
 C         -0.3427857401        4.0664229012        1.2635105228
 C          0.3725858642        2.9915001868        0.7463313524
 C         -0.2557231340        2.1047425173       -0.1086421108
 H          0.3000282336        1.2739112943       -0.5162770251
 N          1.7235523678        2.7854135057        1.0633645795
 S          2.3052559081        1.2184975801        1.2111949714
 O          1.2850993341        0.2930595777        1.6424368959
 O          3.4573352312        1.3490879952        2.0801191765
 C          2.8779283347        0.8253051146       -0.4282900180
 C          2.3698454969       -0.2665922557       -1.1017364992
 C          2.8341953070       -0.5461565868       -2.3771037202
 C          3.7980084673        0.2663274847       -2.9532129414
 C          4.3048975061        1.3565071688       -2.2613533913
 C          3.8425203283        1.6411900064       -0.9870178369
 H          4.2128237325        2.4746961065       -0.4140227064
 H          5.0552950327        1.9851873470       -2.7128442336
 H          4.1539235222        0.0469526330       -3.9474534249
 H          2.4275595640       -1.3880321564       -2.9147342754
 H          1.6105488987       -0.8712209929       -0.6298455832
 H          2.0921299536        3.3945339652        1.7790653275
 H          0.1397796270        4.7664292135        1.9286807523
 H         -2.2331506820        5.0480279409        1.3287741311
 H         -3.3681336342        3.3944662222       -0.0902616924
 H         -1.6237816442        1.0075790942       -2.1445629347
 C         -3.6494450120        1.3491053799       -1.6440791292
 C         -4.5767593666        0.2042194323       -1.9202114068
 C         -4.8249175037        1.1036831259       -0.7483343313
 H         -5.6566250860        1.7913478224       -0.8009538302
 H         -4.6306137877        0.7286915434        0.2435428848
 H         -5.2374793647        0.2690202069       -2.7716229804
 H         -4.2072059148       -0.7925755798       -1.7261394371
 H         -3.7250882167        2.1986830489       -2.3162191825
