  62
        -98.92810744
 C          2.4452083987        0.6018419666        0.9625897415
 C          3.4986015963        1.0164301683        0.1147218851
 C          4.7624248535        0.2488623610        0.1993039873
 C          4.8399246876       -0.7962712123        1.0422911747
 C          5.9934426859       -1.7382728474        1.2661070460
 C          6.1549810586       -2.7621985543        0.1316846784
 C          6.0399209608       -2.1836643840       -1.2759237700
 H          6.0724247332       -3.0181729399       -1.9814611027
 H          5.0656241510       -1.7043322313       -1.3876443256
 C          7.1396217305       -1.1988070819       -1.6657919264
 H          8.1104280261       -1.6912643630       -1.5757661245
 H          6.9911447349       -0.9486238990       -2.7194141933
 C          7.1799251790        0.1081657297       -0.8705749691
 H          7.8251351906        0.8016401180       -1.4179099486
 H          7.6401268878       -0.0366475956        0.1031370790
 C          5.8292500958        0.7998599341       -0.7165813266
 H          6.0010533823        1.8291534120       -0.3790224769
 H          5.3619425584        0.8974598765       -1.7031601976
 H          7.1218909536       -3.2549044874        0.2475638753
 H          5.3745985518       -3.5186993136        0.2453033845
 H          6.9113425256       -1.1770949152        1.4138420125
 H          5.7804546689       -2.2769353712        2.1921729320
 O          3.7884396896       -1.1730854779        1.8264340716
 C          2.5877435356       -0.4966453604        1.8134929009
 O          1.7314706350       -0.9517971298        2.5996734979
 H         -1.4122227735        0.3798433870        1.4204049824
 C         -1.1196026751        0.2956686165        0.3822821839
 C          0.1477976649        0.7082208455       -0.0016089205
 C          0.5163971115        0.5785335482       -1.3367393448
 C         -0.3669485426        0.0460386053       -2.2582414988
 C         -1.6285272448       -0.3698735884       -1.8706791306
 C         -2.0066783411       -0.2458562079       -0.5405763705
 N         -3.2799103289       -0.6843175360       -0.1353552580
 S         -4.5862052213       -0.2737413407       -1.1276972888
 O         -4.6584577510       -1.2279375241       -2.2053976704
 O         -4.4885112156        1.1146219343       -1.5187368059
 C         -5.9535706264       -0.5132321465       -0.0112459582
 C         -6.4696411789       -1.7851373803        0.1490087721
 C         -7.5168603337       -1.9750715856        1.0365324339
 C         -8.0265375117       -0.8971351978        1.7452071478
 C         -7.4986209677        0.3736436473        1.5727433195
 C         -6.4505284974        0.5707125607        0.6875483829
 H         -6.0163598674        1.5424986663        0.5144209642
 H         -7.8990872416        1.2099767201        2.1227731217
 H         -8.8422326834       -1.0475388288        2.4346358637
 H         -7.9318593013       -2.9607690452        1.1719618220
 H         -6.0477482567       -2.5905373103       -0.4291639536
 H         -3.4714537984       -0.4611863845        0.8319406569
 H         -2.3261297362       -0.7828133488       -2.5815444952
 H         -0.0706322216       -0.0466492277       -3.2926353714
 H          1.4973986565        0.9074527709       -1.6445319874
 C          1.0923832964        1.2917990993        1.0182073861
 H          0.6910720270        1.0466984142        2.0146084269
 C          1.1902256661        2.8094492252        0.9369785332
 C          0.7333168000        3.6137158120       -0.2386201486
 C         -0.0518294311        3.6453864086        1.0358936558
 H         -0.0289064526        4.5393122873        1.6404842603
 H         -0.9997541051        3.1278856809        1.0454828739
 H          1.3224702489        4.4755486522       -0.5120982274
 H          0.3105353618        3.0931495015       -1.0834480760
 H          2.0664569952        3.1821738928        1.4575747037
 O          3.4196980272        1.9794015422       -0.6905058257
