  62
        -98.93696995
 C          1.3095978180        1.2729178653       -0.6917551212
 C          2.5313356905        1.2784843529        0.0262654233
 C          3.3522663957        0.0560826786       -0.0194379383
 C          2.9168581522       -0.9901905589       -0.7434801596
 C          3.5498429584       -2.3462006554       -0.9312709699
 C          5.0692420076       -2.3833037504       -1.1545458772
 C          5.8480993660       -2.9375721600        0.0398098974
 H          5.2834972457       -3.7696244173        0.4659086984
 H          6.7989690698       -3.3381419151       -0.3185885744
 C          6.1595630289       -1.9245202870        1.1399075342
 H          6.9207739875       -1.2268418924        0.7842051682
 H          6.5884023688       -2.4725620277        1.9821524565
 C          4.9612289808       -1.1159634334        1.6409520064
 H          4.0809798789       -1.7523699649        1.7333025293
 H          5.1968549264       -0.7538449452        2.6441070557
 C          4.6340710928        0.1041244559        0.7664544779
 H          4.5381939915        0.9935157117        1.3969709079
 H          5.4631974754        0.3066377737        0.0825128585
 H          5.4298066851       -1.3896408851       -1.4151799309
 H          5.2616458751       -3.0321797795       -2.0105380533
 H          3.2828506816       -2.9671527784       -0.0717169139
 H          3.0375851114       -2.7788943467       -1.7939210240
 O          1.7419498039       -0.9510408075       -1.4285522038
 C          0.8995973182        0.1473746733       -1.4037604962
 O         -0.1432146928       -0.0193242252       -2.0666142220
 H         -1.3637776852        0.5810943956       -0.0970596353
 C         -1.3420317683        1.3109411708        0.6943027851
 C         -0.4769358368        2.3931898286        0.6049012899
 C         -0.4622274284        3.3279119304        1.6324072843
 C         -1.2822236863        3.1696901879        2.7357208499
 C         -2.1076619993        2.0662827566        2.8432869893
 C         -2.1314643105        1.1243157605        1.8185115257
 N         -2.9586715825       -0.0015351217        1.9157079066
 S         -2.5356166335       -1.5109974227        1.3142724126
 O         -3.0625684151       -2.4421317122        2.2933893656
 O         -1.1214045070       -1.6075377812        1.0455156030
 C         -3.5205459606       -1.6485613654       -0.1631293227
 C         -2.9718390698       -1.4429161166       -1.4117165200
 C         -3.7944085972       -1.5395833222       -2.5250870055
 C         -5.1388776142       -1.8383398918       -2.3740823473
 C         -5.6741487666       -2.0458146441       -1.1112458287
 C         -4.8598507786       -1.9498386179        0.0041475208
 H         -5.2296060707       -2.1175026844        1.0020612367
 H         -6.7197191846       -2.2812625299       -0.9945765881
 H         -5.7709374799       -1.9117078764       -3.2451243964
 H         -3.3706688975       -1.3765557976       -3.5033249876
 H         -1.9233016199       -1.2070934119       -1.5133021095
 H         -3.4453254275       -0.0877083863        2.7958714972
 H         -2.7263713117        1.9259257513        3.7167821802
 H         -1.2629866851        3.9011026287        3.5294330577
 H          0.2132790040        4.1684633204        1.5739259586
 C          0.4556111478        2.5250154986       -0.5771415980
 H          1.1604865948        3.3377270745       -0.3531274258
 C         -0.3091733935        2.8877555169       -1.8332189461
 C         -0.7206304590        4.3129233181       -2.0452775496
 C          0.3618897140        3.7114528150       -2.8893498730
 H          0.1515433611        3.4890903150       -3.9244691230
 H          1.3812650138        4.0205432369       -2.7087198537
 H         -0.4345412559        5.0344215202       -1.2951112854
 H         -1.6791230457        4.5079456401       -2.5006742529
 H         -0.9870472683        2.1128656426       -2.1648477806
 O          2.9261951174        2.2788075617        0.6864640093
