  62
        -98.94106286
 C         -2.5434572025       -1.2202781607        0.4125337012
 C         -2.8158682320       -0.4128975502       -0.7187888448
 C         -3.3727395745        0.9174732389       -0.4345197790
 C         -3.5917252395        1.3030000922        0.8344791920
 C         -4.1408877393        2.6313205102        1.2778729444
 C         -3.0772701966        3.7333096160        1.3808002751
 C         -2.5639830245        4.2708189058        0.0441604555
 H         -2.0003263819        5.1804859025        0.2602665579
 H         -3.4103163079        4.5520935308       -0.5836661253
 C         -1.6529932493        3.3024394650       -0.7239816630
 H         -1.2727872558        2.5328301628       -0.0462315623
 H         -0.7759901201        3.8386293878       -1.0964550468
 C         -2.3154177551        2.6303365418       -1.9269958061
 H         -1.5914184033        1.9403676843       -2.3691600168
 H         -2.5590283596        3.3854642936       -2.6780938390
 C         -3.5894602748        1.8421235509       -1.5945801042
 H         -3.8502312413        1.2326941663       -2.4635053855
 H         -4.4104351264        2.5276677105       -1.3871354517
 H         -2.2347420410        3.3533114844        1.9638279192
 H         -3.5200949700        4.5637590022        1.9355510219
 H         -4.5712960063        2.4748074998        2.2692352139
 H         -4.9331301947        2.9489449340        0.5995920626
 O         -3.3383386057        0.4910877834        1.8944560856
 C         -2.7839709575       -0.7636880532        1.7121273880
 O         -2.5659286955       -1.3835053299        2.7723716181
 O         -2.6065251526       -0.7569479519       -1.9119901266
 C         -1.8927209530       -2.5934026437        0.3240264881
 C         -0.3959025361       -2.4159541479        0.3310643575
 C          0.4114654415       -3.0478934631        1.2682143884
 C          1.7745829239       -2.8060070394        1.3010682894
 C          2.3565270228       -1.9214001981        0.4100808610
 C          1.5562779616       -1.2869168342       -0.5304827149
 C          0.1971663434       -1.5452350341       -0.5736840082
 H         -0.4167885947       -1.0439064167       -1.3080940666
 N          2.1340031223       -0.3370473765       -1.4099838511
 S          2.4630709343        1.1291529649       -0.6389911073
 O          1.5348361291        1.3741573005        0.4425502905
 O          2.5090790623        2.1247226701       -1.6873552614
 C          4.1019559471        0.8685920261        0.0034076568
 C          4.3107553033        0.8303803086        1.3676274609
 C          5.5933155279        0.6012921880        1.8418725757
 C          6.6367582153        0.4140467172        0.9481404349
 C          6.4099762757        0.4563762071       -0.4197927024
 C          5.1308671323        0.6861350882       -0.9002818815
 H          4.9084845404        0.7307787728       -1.9533349660
 H          7.2239742111        0.3098081522       -1.1112669571
 H          7.6327654264        0.2334004967        1.3204310996
 H          5.7712165920        0.5672586583        2.9047204603
 H          3.4666197084        0.9738200204        2.0232705939
 H          1.5387975525       -0.1486559910       -2.2063532830
 H          3.4145619432       -1.7170331298        0.4389241662
 H          2.3884089942       -3.3022718618        2.0369758758
 H         -0.0404737322       -3.7129771192        1.9895222130
 H         -2.1720421227       -3.1079653095        1.2566154915
 C         -2.4046066108       -3.4359877245       -0.8354775181
 C         -1.5579740670       -3.8414933053       -2.0013552553
 C         -1.9472949719       -4.8583139033       -0.9736878888
 H         -2.6729063952       -5.6130069847       -1.2359322507
 H         -1.1797985801       -5.1979014841       -0.2944119284
 H         -2.0294143096       -3.8725041708       -2.9718187717
 H         -0.5307801553       -3.5131032062       -2.0289219486
 H         -3.4494561811       -3.2378212173       -1.0494324459
