  62
        -98.94453978
 C         -1.4941877389       -1.5096086432        0.1988326802
 C         -1.7250630233       -0.4722725057        1.1404486282
 C         -2.9671781309        0.2955966128        0.9826264645
 C         -3.7877105584        0.0054964287       -0.0439473136
 C         -5.0825353083        0.7068545210       -0.3351207114
 C         -4.8803833678        1.9057308182       -1.2714890983
 C         -3.7564128723        2.8431630554       -0.8325832051
 H         -3.7200799697        3.6679973325       -1.5469501692
 H         -2.8069783544        2.3094499274       -0.9068908985
 C         -3.9158538485        3.4028932882        0.5877466087
 H         -4.9492818199        3.2874959303        0.9167568981
 H         -3.6997267708        4.4731360241        0.5698694248
 C         -2.9829529362        2.7808966910        1.6288581218
 H         -3.0454039168        3.3823894185        2.5399440399
 H         -1.9494285160        2.8351170164        1.2792183715
 C         -3.2867571784        1.3306875841        2.0256645154
 H         -4.3325262513        1.2482146787        2.3313882530
 H         -2.6591674436        1.0876721942        2.8885804679
 H         -5.8189248818        2.4598431192       -1.3293290271
 H         -4.6449495589        1.5301320067       -2.2698009554
 H         -5.5255635553        1.0369708776        0.6028762152
 H         -5.7564093890       -0.0065045917       -0.8125874168
 O         -3.5064820089       -0.9518478385       -0.9603812840
 C         -2.3690448734       -1.7423053237       -0.8637741554
 O         -2.2773526898       -2.5875482321       -1.7736473090
 O         -0.9338374584       -0.2153831697        2.0886218239
 C         -0.2680270427       -2.3788349716        0.4272928239
 C          0.8864765392       -1.9751161925       -0.4577213854
 C          0.8607032961       -2.1705608119       -1.8350420739
 C          1.9417461063       -1.7991290983       -2.6129484807
 C          3.0560062181       -1.2085481369       -2.0415463224
 C          3.0869511000       -0.9993778436       -0.6689372784
 C          2.0111040816       -1.3970270406        0.1132578495
 H          2.0549580605       -1.2326984925        1.1796227324
 N          4.1909568404       -0.3813125784       -0.0521180908
 S          3.8793637834        0.9216541035        0.9590667828
 O          5.1376871574        1.6313069544        1.0375979267
 O          3.3364025304        0.4575941145        2.2082422696
 C          2.6914170587        1.8799794082        0.0382346041
 C          1.3382758805        1.6831050321        0.2253319794
 C          0.4520740232        2.3453974524       -0.6095905060
 C          0.9215646101        3.1950249965       -1.5978867763
 C          2.2843435105        3.3942831046       -1.7603119992
 C          3.1780241916        2.7222370697       -0.9436768754
 H          4.2450855992        2.8450712173       -1.0370026949
 H          2.6492689723        4.0612786578       -2.5245336762
 H          0.2206360798        3.7035232868       -2.2409205525
 H         -0.6064587259        2.1791815537       -0.4820380998
 H          0.9848612661        1.0301092297        1.0081655124
 H          4.9400194823       -0.1537250069       -0.6911735715
 H          3.8950316512       -0.9118181591       -2.6523539789
 H          1.9126770145       -1.9614954024       -3.6796683369
 H         -0.0184924972       -2.6020341936       -2.2876136982
 H          0.0318818158       -2.1766879863        1.4651902745
 C         -0.5577635742       -3.8620066419        0.2984146440
 C          0.3679278703       -4.8386807866        0.9566806083
 C         -1.0115427748       -4.6271127690        1.5033591208
 H         -1.7461950704       -5.4072589337        1.3716015130
 H         -1.1142410521       -4.0843340791        2.4321008042
 H          0.5833278607       -5.7664917499        0.4495391958
 H          1.2013031025       -4.4389301415        1.5152386641
 H         -0.9878117059       -4.1388822751       -0.6548575002
