  62
        -98.94106013
 C         -2.0480978301       -1.4104674901        0.2891051594
 C         -1.7303351902       -0.4220371800       -0.6775298005
 C         -2.7589138402        0.6088113900       -0.9052289603
 C         -3.8628672402        0.6302478599       -0.1381726103
 C         -4.9435159502        1.6682891399       -0.2123013501
 C         -4.6362063903        2.8556750497        0.7115176801
 C         -3.2251807703        3.4193279598        0.5438112501
 H         -3.1301121603        4.2675775697        1.2248116403
 H         -2.5019485703        2.6659839398        0.8642639600
 C         -2.8919572003        3.8692076100       -0.8855691298
 H         -2.4025545403        4.8445317000       -0.8436645296
 H         -3.8119986003        3.9940703501       -1.4578706598
 C         -1.9496125603        2.9316449102       -1.6415525699
 H         -1.0494845903        2.7572799101       -1.0491717200
 H         -1.6377716603        3.4325105603       -2.5621582199
 C         -2.5328142702        1.5709603702       -2.0395023502
 H         -3.4609001602        1.7197233603       -2.5963030401
 H         -1.8095209802        1.0888323004       -2.7043449202
 H         -5.3690597603        3.6410274697        0.5178642202
 H         -4.7550027102        2.5281874395        1.7469272200
 H         -5.0422464002        2.0111672200       -1.2407216701
 H         -5.8833641202        1.2096850298        0.0996715898
 O         -4.0897371002       -0.2766797903        0.8447438195
 C         -3.2143931501       -1.3257661103        1.0607683494
 O         -3.5748277001       -2.1057348704        1.9641533992
 H          0.8781321699       -2.2906358998       -1.1704433808
 C          1.1730926599       -2.0687653500       -0.1572290208
 C          0.2522470799       -2.1995423402        0.8692961292
 C          0.6475608399       -1.8896852004        2.1663385893
 C          1.9413862899       -1.4755138904        2.4295028993
 C          2.8500358499       -1.3141113302        1.3982617693
 C          2.4479596199       -1.5818135400        0.0957264793
 N          3.3210389599       -1.3204814998       -0.9728253907
 S          4.2372584398        0.0775463303       -0.9034047304
 O          4.3589247298        0.5271793605       -2.2736989404
 O          5.4867902398       -0.2159239698       -0.2410501005
 C          3.3485295598        1.2845009901        0.0762151198
 C          4.0902810198        2.0437599799        0.9607257599
 C          3.4527927897        2.9946780598        1.7402356400
 C          2.0814138697        3.1616155098        1.6328141101
 C          1.3522433598        2.3910593299        0.7416289499
 C          1.9836826798        1.4498371900       -0.0570121002
 H          1.4113584498        0.8463644901       -0.7454876603
 H          0.2822545097        2.5096003499        0.6689996800
 H          1.5756303597        3.8903794697        2.2463667902
 H          4.0234919997        3.5931804497        2.4318475001
 H          5.1510331198        1.8634146800        1.0278770198
 H          2.8783385399       -1.4112125696       -1.8762122907
 H          3.8574706599       -0.9749052202        1.5810660194
 H          2.2419047899       -1.2605713605        3.4434309793
 H         -0.0717838001       -1.9770367005        2.9684535892
 C         -1.1677325601       -2.6164492202        0.5854123991
 H         -1.5847355301       -3.0453952503        1.5094006391
 C         -1.2361823901       -3.7130168700       -0.4708570810
 C         -2.5608561401       -4.1518531499       -1.0184764811
 C         -1.5723132901       -3.4636412698       -1.9088267910
 H         -1.0621597901       -4.0516490296       -2.6581137511
 H         -1.7798781601       -2.4519334897       -2.2192338008
 H         -3.4332285201       -3.5980428600       -0.7019619610
 H         -2.7400574600       -5.2068527899       -1.1599381313
 H         -0.5114827100       -4.4978924600       -0.2757106812
 O         -0.6630840902       -0.3798232998       -1.3431606505
