  62
        -98.94274694
 C         -0.7389418843       -1.9647709308        0.2251476554
 C         -1.3863175883       -1.1394511600        1.1739636049
 C         -2.6520719365       -0.5315502201        0.7470104061
 C         -3.1332904722       -0.7951784884       -0.4808650934
 C         -4.4078290391       -0.2586508529       -1.0747328550
 C         -4.4264633220        1.2620931768       -1.3276632320
 C         -5.0744246686        2.0779390834       -0.2016815904
 H         -5.6814985101        2.8691810503       -0.6463453938
 H         -5.7573557824        1.4322857605        0.3523740052
 C         -4.1054377071        2.7530380897        0.7737605384
 H         -3.6927845964        3.6487722609        0.3033183765
 H         -4.6783685229        3.0718595207        1.6477531106
 C         -2.9219616393        1.9029066604        1.2376197401
 H         -2.4392793181        2.4222539700        2.0691545705
 H         -2.1799084492        1.8490672999        0.4357719812
 C         -3.2875458051        0.4680943434        1.6691026296
 H         -4.3683397204        0.3374331250        1.6935947299
 H         -2.8923190061        0.2691746032        2.6676740062
 H         -4.9975291020        1.4274201966       -2.2428949887
 H         -3.4094224318        1.6099414472       -1.5150132743
 H         -4.5318663478       -0.7815198305       -2.0251901405
 H         -5.2451287874       -0.5324661956       -0.4288395314
 O         -2.5035659482       -1.6323427706       -1.3489883004
 C         -1.2725634519       -2.1945191043       -1.0428297749
 O         -0.7758526904       -2.8723673176       -1.9629328946
 O         -0.9181361174       -0.9078105632        2.3219811851
 C          0.6421312503       -2.5013254947        0.5467677148
 C          1.6739357242       -1.8632442610       -0.3554873805
 C          2.8454634531       -2.5039474100       -0.7414946750
 C          3.7598997334       -1.8571016621       -1.5551788340
 C          3.5392459917       -0.5627804289       -1.9912349256
 C          2.3716861426        0.0877818648       -1.6085270748
 C          1.4613410540       -0.5640966356       -0.7934822167
 H          0.5487631077       -0.0563081525       -0.5270939619
 N          2.0856945910        1.3893925724       -2.0400907813
 S          1.1540465279        2.4219700310       -1.1170010502
 O         -0.2275872795        2.0092366789       -1.1237481096
 O          1.4210601710        3.7284793593       -1.6806212874
 C          1.8530181929        2.3267395755        0.5207900506
 C          1.1641983924        1.7331641516        1.5572219216
 C          1.7734077009        1.6353414183        2.7986702157
 C          3.0530902079        2.1332075784        2.9832239502
 C          3.7293867799        2.7389532645        1.9342545491
 C          3.1274371923        2.8343921701        0.6910930055
 H          3.6163874515        3.3065365731       -0.1455028312
 H          4.7226618648        3.1312725162        2.0814624795
 H          3.5240226635        2.0502431517        3.9500384677
 H          1.2381219900        1.1566455354        3.6032712988
 H          0.1712235940        1.3452172971        1.3951440937
 H          2.8301124254        1.8648892536       -2.5264816513
 H          4.2518180228       -0.0653635911       -2.6307778373
 H          4.6617536409       -2.3691794405       -1.8543369016
 H          3.0368529979       -3.5125321069       -0.4132303456
 H          0.8493664686       -2.1718544400        1.5770322045
 C          0.6716197248       -4.0151853032        0.5070166976
 C          1.5520232909       -4.7829700406        1.4463747774
 C          0.0674217811       -4.7781572574        1.6468257732
 H         -0.4898799479       -5.6764604343        1.4279049781
 H         -0.3373702816       -4.2031239049        2.4669327438
 H          2.0155234578       -5.6909702147        1.0910019883
 H          2.1555025677       -4.2195494155        2.1419417901
 H          0.5206560427       -4.4067131170       -0.4924303303
