  62
        -98.94557509
 C         -1.9648063179       -1.5173742405       -0.0933356802
 C         -1.6894607808       -0.2696601094       -0.7042211437
 C         -2.8187800897        0.6704995217       -0.7645258072
 C         -4.0187369298        0.2929049680       -0.2870864051
 C         -5.2388456783        1.1659855733       -0.2454625547
 C         -5.3317854153        1.9250731168        1.0855355709
 C         -4.0364288481        2.6335734900        1.4816818662
 H         -4.2280466180        3.1614492151        2.4184734574
 H         -3.2680650510        1.8844919649        1.6866340081
 C         -3.5108125556        3.6239955058        0.4335874288
 H         -3.2104684364        4.5429233149        0.9415139948
 H         -4.3097571773        3.8855540273       -0.2612407881
 C         -2.2942607994        3.1316015083       -0.3527366253
 H         -1.8827353383        3.9846787340       -0.8982245498
 H         -1.5263670673        2.7795835935        0.3403914978
 C         -2.5606757258        2.0193595612       -1.3746796761
 H         -3.3831333892        2.3099681598       -2.0314712948
 H         -1.6576093051        1.9009420152       -1.9803793299
 H         -5.5884068102        1.2130301170        1.8734841977
 H         -6.1404339281        2.6545999916        1.0116993703
 H         -5.2057639802        1.8689305240       -1.0754540532
 H         -6.1200717624        0.5313372527       -0.3537808886
 O         -4.2494054522       -0.9267037596        0.2644583831
 C         -3.2271500008       -1.8522765650        0.3945948693
 O         -3.5618619923       -2.9177353283        0.9517054426
 H          1.7857730961       -2.3071115226       -0.7351748887
 C          1.5866405525       -1.8621470048        0.2269452359
 C          0.3116517418       -1.9144022381        0.7650406621
 C          0.0913061619       -1.3296887144        2.0097070111
 C          1.1166240235       -0.7008738165        2.6888693866
 C          2.3861530504       -0.6373294890        2.1406142106
 C          2.6165744211       -1.2193095341        0.9023974335
 N          3.9022563388       -1.1519153332        0.3322103039
 S          4.6102867948        0.3611180142        0.2008352370
 O          5.6492870403        0.2019987122       -0.7921378236
 O          5.0441614714        0.7977024795        1.5044493764
 C          3.3252071419        1.4331200798       -0.4118381088
 C          2.6532412891        2.2676125491        0.4570049904
 C          1.6292286310        3.0594762019       -0.0361644320
 C          1.2951587183        3.0001362087       -1.3793004933
 C          1.9777303065        2.1544037199       -2.2383816182
 C          3.0009278698        1.3594519258       -1.7515061985
 H          3.5606767832        0.6958323051       -2.3912310977
 H          1.7098233413        2.1069283924       -3.2816296565
 H          0.4958011925        3.6159767427       -1.7597133601
 H          1.0925993625        3.7174876697        0.6288759493
 H          2.9461477143        2.2885857582        1.4939968085
 H          3.9730155757       -1.6402185350       -0.5493315142
 H          3.1971913049       -0.1426572625        2.6498803568
 H          0.9275279890       -0.2519063949        3.6524378167
 H         -0.9036688887       -1.3685844085        2.4331682096
 C         -0.8556355048       -2.5451953445        0.0472020015
 H         -1.2587548736       -3.3486221390        0.6800181883
 C         -0.5075629066       -3.1222138643       -1.3089458924
 C          0.1026234188       -4.4870593254       -1.4132207808
 C         -1.3174776951       -4.2658279755       -1.8379147893
 H         -1.5513358224       -4.2885714437       -2.8917776148
 H         -2.1087584524       -4.6458291262       -1.2081851644
 H          0.8423572819       -4.6670899887       -2.1789300454
 H          0.2787807902       -5.0273609142       -0.4953619078
 H         -0.1956753633       -2.3639113079       -2.0182950582
 O         -0.5659200084        0.0423863753       -1.1751640985
