  62
        -98.93233844
 C         -2.5439163898       -1.0443831105        0.4954600895
 C         -2.7307644299        0.2112030690        1.1235467306
 C         -3.9139063601        0.9996356091        0.7307464814
 C         -4.7404565202        0.4964667098       -0.2048176588
 C         -5.9855286904        1.1121868900       -0.7870247881
 C         -5.6821387008        2.2310369209       -1.7950075672
 C         -4.6140156808        3.2242359807       -1.3461478566
 H         -3.6833236507        2.6868112007       -1.1550714872
 H         -4.4273423311        3.9086393215       -2.1779762561
 C         -4.9790334607        4.0628038697       -0.1233376658
 H         -4.1829793108        4.7993481797        0.0122435546
 H         -5.9036894209        4.6077987397       -0.3256581752
 C         -5.1417991904        3.2958609185        1.1914306936
 H         -6.1069641903        2.7990828184        1.2424327333
 H         -5.1294193004        4.0319913079        2.0004738042
 C         -4.0246780002        2.3007791385        1.4887605125
 H         -4.0807234299        2.0182546476        2.5468698223
 H         -3.0565542603        2.8022062987        1.3769549228
 H         -6.6110118109        2.7626767310       -2.0088144066
 H         -5.3375535608        1.7669049418       -2.7224471577
 H         -6.5149690304        0.3106790604       -1.3070551087
 H         -6.6312068003        1.4735436193        0.0078603323
 O         -4.5088612501       -0.7066168097       -0.8009651899
 C         -3.4233879299       -1.5033758698       -0.4847905107
 O         -3.3778151899       -2.5661383592       -1.1335385916
 O         -1.9376217998        0.6642988484        1.9936674808
 C         -1.3309496996       -1.8568247706        0.9176381486
 C         -0.2288633398       -1.7000810596       -0.1031825015
 C         -0.2224865299       -2.4115862186       -1.2977751720
 C          0.7971597999       -2.2269954477       -2.2142795721
 C          1.8263769098       -1.3371232277       -1.9627457015
 C          1.8285105999       -0.6198471687       -0.7738710009
 C          0.8063239601       -0.8096105496        0.1475059591
 H          0.8001011402       -0.2419167604        1.0687740996
 N          2.8606888898        0.3015515812       -0.5179104804
 S          4.4343581798       -0.1907039882       -0.8917903010
 O          4.6636347295        0.0462279730       -2.2952216609
 O          4.6490549001       -1.5459945085       -0.4369280322
 C          5.4009651998        0.9493041412        0.0781961097
 C          5.6591472295        2.2080888116       -0.4304292493
 C          6.3978902095        3.0989370411        0.3318591213
 C          6.8627512498        2.7189368901        1.5822501109
 C          6.5960214101        1.4518839897        2.0788648599
 C          5.8569671101        0.5562183302        1.3222454993
 H          5.6347669403       -0.4422127301        1.6636735685
 H          6.9614981503        1.1583323289        3.0497563496
 H          7.4393790998        3.4134776798        2.1725043314
 H          6.6100737293        4.0840182315       -0.0513398679
 H          5.2862244193        2.4557811424       -1.4105143190
 H          2.8072051999        0.6823856805        0.4170513600
 H          2.6291301996       -1.1927322570       -2.6680512515
 H          0.7912526898       -2.7842170869       -3.1393299225
 H         -1.0331996699       -3.0889292586       -1.5141278425
 H         -0.9874422595       -1.3890879713        1.8503175389
 C         -1.6514360993       -3.3100356209        1.2014472775
 C         -0.6658546691       -4.1285190814        1.9786710366
 C         -1.9678906390       -3.7298564721        2.6042547272
 H         -2.7216387989       -4.4877014524        2.7564180567
 H         -1.9540131090       -2.9684688127        3.3705043278
 H         -0.5218008889       -5.1612542811        1.7009033957
 H          0.2333962409       -3.6363853115        2.3177930369
 H         -2.1963145294       -3.7993079803        0.4052913872
