  62
        -98.93293095
 C         -2.2469630126       -1.0268638302        0.2907217423
 C         -2.1352072824       -0.0682844716       -0.7446042207
 C         -2.1438967834        1.3542179507       -0.3359872118
 C         -2.3116687778        1.6633471592        0.9615195587
 C         -2.3967761747        3.0290659926        1.5893947918
 C         -3.7421761782        3.7266626421        1.3240442108
 C         -4.2763852139        3.5840034796       -0.0990388343
 H         -4.3587351149        2.5238600651       -0.3454676250
 H         -5.2861959384        4.0021548348       -0.1181898031
 C         -3.4578131736        4.2914133356       -1.1760688312
 H         -3.9819423271        4.1562436705       -2.1254996742
 H         -3.4302468850        5.3617604281       -0.9597797830
 C         -2.0206177257        3.7978526890       -1.3520450817
 H         -1.3806913888        4.1620548409       -0.5526430785
 H         -1.6356660583        4.2326489910       -2.2793346154
 C         -1.8748417927        2.2857092570       -1.4929289965
 H         -2.5109811358        1.9378873569       -2.3151210625
 H         -0.8456451441        2.0605347598       -1.8053421390
 H         -4.4827451144        3.2927398344        2.0000186985
 H         -3.6368937188        4.7841282214        1.5716555612
 H         -2.2844767189        2.8848474885        2.6663152592
 H         -1.5638072978        3.6392604217        1.2517326489
 O         -2.4873797935        0.7059045234        1.9179024762
 C         -2.3965894104       -0.6376249173        1.6225923134
 O         -2.4908599901       -1.3902865576        2.6157606011
 H          0.1239420398       -1.1467557934       -0.7395631397
 C          0.3828857631       -2.0223309233       -0.1640750588
 C         -0.6109139207       -2.8634755821        0.3141776117
 C         -0.2366007410       -3.9882456209        1.0400493775
 C          1.0993920924       -4.2534763503        1.2861299522
 C          2.0836522808       -3.3871247352        0.8452719911
 C          1.7182330696       -2.2585274470        0.1204250120
 N          2.6713742075       -1.3312483797       -0.3335210140
 S          2.2368473619        0.3043573748       -0.2244700479
 O          1.4738690066        0.5335541719        0.9817916607
 O          1.6262024540        0.7105710001       -1.4645323892
 C          3.8514087531        1.0521700724       -0.0882514204
 C          4.5781292598        1.2845412506       -1.2408585548
 C          5.8490651192        1.8267205349       -1.1333423287
 C          6.3697886802        2.1244092409        0.1173383914
 C          5.6280188994        1.8873975987        1.2649348748
 C          4.3567525609        1.3439439201        1.1645929836
 H          3.7393610917        1.1491536043        2.0270993110
 H          6.0334759588        2.1227535826        2.2357189828
 H          7.3589189646        2.5464664176        0.1984637957
 H          6.4272849726        2.0149152732       -2.0234548634
 H          4.1271765859        1.0446770608       -2.1896709155
 H          3.5931240992       -1.4949215690        0.0493245573
 H          3.1232054408       -3.5774062227        1.0647585800
 H          1.3760961964       -5.1312720559        1.8500820880
 H         -1.0011360732       -4.6420455501        1.4334713090
 C         -2.0624889861       -2.5213074166        0.0795098435
 H         -2.6473337500       -3.0099042015        0.8762278718
 C         -2.5856409645       -3.0358744639       -1.2524086376
 C         -1.6887289059       -3.4021158141       -2.3924047621
 C         -2.3987134227       -4.4764313694       -1.6282719344
 H         -3.2179517699       -4.9938180652       -2.1038458144
 H         -1.8071357135       -5.0926059703       -0.9686530940
 H         -2.0220850313       -3.1567523109       -3.3889039765
 H         -0.6243399657       -3.2890040668       -2.2540174196
 H         -3.5354044776       -2.5823617142       -1.5148230898
 O         -2.0352631937       -0.3553122061       -1.9657701821
