  62
        -98.94790943
 C          1.2292808575        1.2171477394        0.4500765934
 C          1.5634728863        0.4495562632       -0.6912233531
 C          2.2593328823       -0.8166289633       -0.4219827812
 C          2.4265086147       -1.2315533258        0.8466992914
 C          3.0492052776       -2.5317593616        1.2776204597
 C          4.5793826639       -2.4860997145        1.3872248045
 C          5.3215505989       -2.4299962779        0.0516088245
 H          6.3769775522       -2.6116550489        0.2636374065
 H          4.9738814317       -3.2406024291       -0.5894314829
 C          5.1881933172       -1.0912049252       -0.6873505022
 H          6.1704607772       -0.7725226407       -1.0433222802
 H          4.8372041248       -0.3252030012        0.0081672000
 C          4.2572383214       -1.1255728806       -1.8991744748
 H          4.2134481649       -0.1193541845       -2.3235019871
 H          4.6706471871       -1.7933096405       -2.6580837677
 C          2.8212279099       -1.5718021170       -1.5892696490
 H          2.2047867625       -1.3435368098       -2.4623889110
 H          2.7939368364       -2.6453556828       -1.4022315045
 H          4.8597453400       -1.6245025508        1.9978202428
 H          4.8953302341       -3.3864683189        1.9191342151
 H          2.7552639867       -3.3246237855        0.5891767542
 H          2.6387256939       -2.7591887067        2.2641374752
 O          2.0116392757       -0.5012171347        1.9176277985
 C          1.4544620018        0.7564755554        1.7480774582
 O          1.2030189478        1.3562701034        2.8137115274
 O          1.3028177679        0.7943691117       -1.8721313087
 C          0.5651888787        2.5746087160        0.2933951790
 C         -0.8179661000        2.3866142878       -0.2830592687
 C         -1.2492898600        2.9710799616       -1.4659706709
 C         -2.5328870140        2.7401419491       -1.9304691662
 C         -3.4048200186        1.9264439049       -1.2315412910
 C         -2.9859279732        1.3433875774       -0.0398518535
 C         -1.7026440290        1.5807842840        0.4251183671
 H         -1.3851679032        1.1313315937        1.3555788404
 N         -3.8623518149        0.5367754621        0.7087825045
 S         -3.3626663489       -0.9486975982        1.2881054045
 O         -4.5823627533       -1.5837727880        1.7381495770
 O         -2.3260845287       -0.7850927318        2.2743279362
 C         -2.7381442608       -1.8058483918       -0.1436760240
 C         -3.6294199972       -2.5063591238       -0.9338892175
 C         -3.1640253102       -3.1290422019       -2.0801034365
 C         -1.8226675986       -3.0333664918       -2.4194144572
 C         -0.9415987797       -2.3262995250       -1.6161802756
 C         -1.4006213834       -1.7039960519       -0.4662352439
 H         -0.7381052581       -1.1470959175        0.1789333403
 H          0.1005140992       -2.2423732453       -1.8771565962
 H         -1.4578431258       -3.5131229972       -3.3137683958
 H         -3.8454020595       -3.6832229160       -2.7052031654
 H         -4.6606912023       -2.5623770470       -0.6250712823
 H         -4.7876448463        0.4577491855        0.3107634551
 H         -4.4045679889        1.7469518219       -1.5965051885
 H         -2.8562634954        3.1968398123       -2.8532964662
 H         -0.5807077780        3.6024471480       -2.0268133895
 H          0.4487605203        2.9706386101        1.3129446364
 C          1.4435982250        3.5178607982       -0.5000383531
 C          1.2957323723        4.9985933560       -0.3272732834
 C          2.5023993390        4.2970445126        0.2181459211
 H          3.4534158893        4.4471662617       -0.2705876384
 H          2.5789286811        4.1635190326        1.2879274730
 H          1.4209040530        5.6347710351       -1.1902285236
 H          0.5533832887        5.3475912525        0.3746605245
 H          1.6880432544        3.1377142992       -1.4845287229
