  62
        -98.94228103
 C         -1.1934430715       -0.9429432165        0.4407441775
 C         -2.0614431159       -0.7186147089       -0.6516546548
 C         -3.0489108541        0.3653931680       -0.4947543739
 C         -3.0512542423        1.1023553209        0.6315482075
 C         -3.8917694136        2.2934622712        1.0433420925
 C         -5.1617097704        2.6573690219        0.2786634508
 C         -6.2995484395        1.6452093848        0.4091624444
 H         -6.6773357200        1.6786377926        1.4341305848
 H         -7.1094278422        1.9557006463       -0.2544670485
 C         -5.9313567702        0.1962240414        0.1006206195
 H         -5.1897789529       -0.1547582853        0.8209939916
 H         -6.8286993221       -0.4129219889        0.2386220948
 C         -5.4095026825       -0.0588975649       -1.3119584968
 H         -6.1241795369        0.3239818814       -2.0429830716
 H         -5.3403359637       -1.1415724879       -1.4465129749
 C         -4.0243508980        0.5340909532       -1.6239027173
 H         -3.6042291371       -0.0136206917       -2.4728204462
 H         -4.0961317614        1.5792579058       -1.9162484359
 H         -5.5133428189        3.6053625378        0.6951461514
 H         -4.9308632803        2.8409538168       -0.7666167449
 H         -4.1425716536        2.1314563907        2.0967452980
 H         -3.2121801043        3.1532541934        1.0177176876
 O         -2.1598440560        0.8768201749        1.6415431329
 C         -1.2141227577       -0.1291552060        1.5708489676
 O         -0.4593627961       -0.1978526562        2.5633911428
 H          0.8004575084        0.3714592180       -0.2974181271
 C          1.2487197675       -0.4010332842       -0.9028243905
 C          0.8540607134       -1.7203709474       -0.7317797141
 C          1.4222075742       -2.6911405409       -1.5472285271
 C          2.3500493698       -2.3366192015       -2.5116864111
 C          2.7514008296       -1.0219150379       -2.6670281006
 C          2.1925011375       -0.0445921772       -1.8516487864
 N          2.5685920998        1.3032677274       -1.9589453613
 S          2.6769215675        2.2286853161       -0.5691492932
 O          1.3632742430        2.5989344821       -0.1037777894
 O          3.5424471305        3.3277067627       -0.9429984314
 C          3.5139457703        1.1796890633        0.6069056541
 C          4.8472789349        0.9069077589        0.3640251339
 C          5.5279596805        0.0563803975        1.2183920060
 C          4.8651454020       -0.5114394016        2.2964415757
 C          3.5301593075       -0.2235076840        2.5299798522
 C          2.8433071792        0.6301861628        1.6798135952
 H          1.8018470501        0.8593958106        1.8458908949
 H          3.0048555780       -0.6590897309        3.3652295764
 H          5.3910283757       -1.1793387301        2.9602648677
 H          6.5682130780       -0.1638986539        1.0412137001
 H          5.3294125318        1.3774093162       -0.4774397911
 H          3.3300791459        1.4860321404       -2.5957418686
 H          3.4803005377       -0.7506388334       -3.4149495595
 H          2.7755981958       -3.0985382764       -3.1467220458
 H          1.1331552662       -3.7229517867       -1.4329127109
 C         -0.1362661554       -2.0281099388        0.3666605724
 H          0.4089422936       -1.9822430382        1.3219995466
 C         -0.7773511107       -3.3942265195        0.2370164043
 C         -0.1191130317       -4.5988659872        0.8377558479
 C         -1.3604277472       -4.0353347409        1.4594037663
 H         -2.2849476443       -4.5844880434        1.3630748055
 H         -1.2689697154       -3.4970138704        2.3919978913
 H         -0.1935035370       -5.5409502536        0.3157874972
 H          0.8160399907       -4.4522638134        1.3567134147
 H         -1.3163341999       -3.5129957318       -0.6954947467
 O         -2.0149402089       -1.3850940115       -1.7188583915
