  62
        -98.94310282
 C         -2.5583451190       -0.1833220860        0.5336852408
 C         -2.2037053003        0.3568862285       -0.7280116941
 C         -1.9922672618        1.8124563974       -0.7675684578
 C         -2.0987604578        2.5290670601        0.3646620302
 C         -1.8827190510        4.0106463417        0.4732463387
 C         -0.4284805990        4.3464879680        0.8281192197
 C          0.6054032064        3.6503931345       -0.0574494794
 H          1.5898403333        4.0137042059        0.2478580128
 H          0.5921833671        2.5752954937        0.1403106114
 C          0.4171966349        3.8847437682       -1.5628345913
 H         -0.2116225383        4.7610508172       -1.7283457395
 H          1.3927948955        4.0950524394       -2.0057596003
 C         -0.1642067681        2.6856253408       -2.3147356662
 H          0.3827879918        1.7833047747       -2.0307683493
 H         -0.0123326543        2.8459112935       -3.3858455447
 C         -1.6605933369        2.4257370343       -2.0986442055
 H         -2.2232484755        3.3505196696       -2.2479036112
 H         -1.9833453366        1.6998667193       -2.8508719947
 H         -0.2999857584        5.4286391299        0.7573012528
 H         -0.2458410310        4.0480793649        1.8633649761
 H         -2.1545039681        4.4795198661       -0.4706650894
 H         -2.5354144832        4.3930848296        1.2603921809
 O         -2.3967447136        1.9705150848        1.5672478614
 C         -2.6098790670        0.6072636523        1.6829672282
 O         -2.8412476085        0.2247327503        2.8493895604
 H         -0.1959710996       -1.2402861256        1.1391736970
 C         -0.3375662055       -2.0317191410        0.4155090526
 C         -1.6269537166       -2.4185988767        0.0713684671
 C         -1.7888289107       -3.4409847924       -0.8532610992
 C         -0.6818385418       -4.0363188976       -1.4340798380
 C          0.5979044108       -3.6172923434       -1.1218032291
 C          0.7695275673       -2.6009637404       -0.1881202993
 N          2.0533246836       -2.1460440822        0.1685765094
 S          2.2155142526       -0.4870871682        0.4579203871
 O          1.8497165343       -0.2175068828        1.8278416847
 O          1.5201516999        0.2692483804       -0.5556794564
 C          3.9789028025       -0.2969191556        0.2720100849
 C          4.4869257929        0.3135433604       -0.8584338761
 C          5.8615772371        0.4300364235       -0.9965788062
 C          6.6991389239       -0.0663100734       -0.0093390044
 C          6.1739427612       -0.6761330407        1.1207079573
 C          4.8010098702       -0.7936745172        1.2662181377
 H          4.3461945480       -1.2495182863        2.1302081559
 H          6.8280228209       -1.0585561043        1.8875455235
 H          7.7681159505        0.0247785326       -0.1196547542
 H          6.2719538401        0.9066291273       -1.8721481603
 H          3.7956400562        0.6878246627       -1.5964915640
 H          2.7692367100       -2.4756016164       -0.4654801292
 H          1.4571536814       -4.0649221475       -1.5979952134
 H         -0.8199330078       -4.8249155063       -2.1583611485
 H         -2.7792598872       -3.7520060456       -1.1423469119
 C         -2.7627664315       -1.6770065786        0.7329817337
 H         -2.6675749090       -1.8286540828        1.8220015774
 C         -4.1411003437       -2.1899833213        0.3447276732
 C         -5.3304349698       -1.2774930166        0.3393366793
 C         -4.8001598948       -1.8247115513       -0.9500040478
 H         -5.3796066759       -2.5810188200       -1.4592261295
 H         -4.2639038081       -1.1630548768       -1.6109110392
 H         -6.2685880658       -1.6566806573        0.7160053249
 H         -5.1591722091       -0.2340600810        0.5625449306
 H         -4.3143589607       -3.1967997553        0.7126742449
 O         -2.0870522445       -0.3265010818       -1.7778851733
