  62
        -98.93577528
 C         -1.9415794823       -0.6143564822       -0.0806572780
 C         -2.9873355020       -0.5628784423        0.8769646391
 C         -4.1038389315        0.3550694363        0.6014885858
 C         -4.0796350073        1.0992931778       -0.5167727627
 C         -5.0811254115        2.1238189633       -0.9879992309
 C         -6.5692644437        1.7791115522       -0.8399274309
 C         -6.9098700378        0.2903056664       -1.0007442960
 H         -7.7189269916        0.1880156259       -1.7263859349
 H         -6.0480594307       -0.2503769871       -1.3957616781
 C         -7.3662756642       -0.3622751480        0.3064111300
 H         -8.0485208863        0.3198687617        0.8183787635
 H         -7.9283720462       -1.2686512575        0.0687444608
 C         -6.2465782690       -0.7631506682        1.2662038106
 H         -6.7071360595       -1.1030139115        2.1968861666
 H         -5.6921493366       -1.6113514589        0.8556874174
 C         -5.2289843695        0.3411828610        1.5958154236
 H         -4.7749367006        0.1022575755        2.5613543150
 H         -5.7115489256        1.3127166249        1.6708579961
 H         -6.9280136652        2.1223974773        0.1294057611
 H         -7.1033187084        2.3586153462       -1.5949668954
 H         -4.8776487035        3.0631266676       -0.4652719923
 H         -4.8462000267        2.2863527296       -2.0427945049
 O         -3.0505296887        1.0312841714       -1.4053537596
 C         -1.9636517509        0.1857811067       -1.2222503721
 O         -1.1200100063        0.2621801850       -2.1356890904
 O         -2.9868130589       -1.2609003867        1.9256194595
 C         -0.8120821606       -1.5903279325        0.1999768797
 C          0.3641061151       -0.9151554372        0.8573062869
 C          0.9307287746       -1.4373106830        2.0141841240
 C          2.0207808335       -0.8223148834        2.6059278606
 C          2.5716698668        0.3194521398        2.0530917136
 C          2.0149462932        0.8467804660        0.8945297605
 C          0.9198697504        0.2311642845        0.3053749072
 H          0.4934224598        0.6455853205       -0.5962124002
 N          2.5776453788        1.9973184030        0.3129752332
 S          4.2392409101        2.0048119159        0.0985119966
 O          4.8799064999        2.3639904843        1.3394914518
 O          4.4796611686        2.8932881354       -1.0161803205
 C          4.6553643399        0.3239859821       -0.3307073146
 C          5.4081793411       -0.4439679118        0.5342340602
 C          5.6726345669       -1.7629834535        0.2018091286
 C          5.1797797848       -2.2889292480       -0.9821333936
 C          4.4306452668       -1.5027788957       -1.8441405596
 C          4.1623202967       -0.1835355928       -1.5166022561
 H          3.5830522848        0.4544225850       -2.1658903616
 H          4.0459271936       -1.9134996723       -2.7636834699
 H          5.3787387755       -3.3176110256       -1.2373826660
 H          6.2572409989       -2.3761174388        0.8684536963
 H          5.7714748903        0.0049451971        1.4440690887
 H          2.1028367881        2.2934664198       -0.5275671557
 H          3.4161599904        0.8162603158        2.5022862453
 H          2.4458702662       -1.2350993937        3.5077362829
 H          0.5014580581       -2.3235838026        2.4576430193
 H         -1.2353713339       -2.2950329769        0.9329720625
 C         -0.4151456688       -2.4034290013       -1.0257910091
 C          0.8588601018       -2.2040438516       -1.7841804665
 C          0.6815814182       -3.4231566232       -0.9332679428
 H          0.5404207475       -4.3786982313       -1.4146818425
 H          1.2389756087       -3.4676240392       -0.0099201752
 H          0.8181810954       -2.3029233490       -2.8581610303
 H          1.5425063462       -1.4429370217       -1.4438018063
 H         -1.2835139409       -2.6765519134       -1.6178922444
