  62
        -98.94174956
 C         -1.7053372647       -0.4845428975       -0.2742483546
 C         -2.8261825964       -1.2936711972        0.0475571406
 C         -4.1407908138       -0.7591527335       -0.3226056255
 C         -4.2255820952        0.4407511655       -0.9242421568
 C         -5.4896918058        1.1112471805       -1.3896372798
 C         -6.2259894467        1.8878494473       -0.2894393618
 C         -6.9342850628        1.0230815368        0.7541597022
 H         -7.5838572082        1.6848580286        1.3305175843
 H         -7.5739116288        0.2981202938        0.2497296365
 C         -5.9889769464        0.2951687629        1.7201353051
 H         -4.9999460544        0.7575022176        1.6785329195
 H         -6.3535549369        0.4118701223        2.7432090116
 C         -5.8462747321       -1.2041778941        1.4582392525
 H         -6.8058882133       -1.6982666409        1.6254076626
 H         -5.1286342255       -1.6107526192        2.1752197504
 C         -5.3558450593       -1.5552566611        0.0474523847
 H         -5.0783828241       -2.6121060500        0.0342885642
 H         -6.1520104332       -1.3933151438       -0.6789602863
 H         -5.5125101793        2.5492486797        0.2077110433
 H         -6.9744623271        2.5151622288       -0.7791690976
 H         -5.1977562681        1.8156974810       -2.1716210886
 H         -6.1599889607        0.3686211019       -1.8235799418
 O         -3.1309807709        1.1966357011       -1.1993805049
 C         -1.8483359502        0.7726574275       -0.8637681102
 O         -0.9624394516        1.6005962161       -1.1445752431
 H          1.8943193687        0.3584473893       -0.7816406995
 C          1.5970531393        0.6235534567        0.2183810689
 C          0.4780310877        0.0465574662        0.7963833101
 C          0.0884636729        0.4687131468        2.0652029545
 C          0.7975133741        1.4479577007        2.7326675686
 C          1.9237072030        2.0119553363        2.1587207282
 C          2.3185104978        1.6003058649        0.8918838786
 N          3.4524419031        2.1532129677        0.2840326982
 S          4.4056417373        1.2392232749       -0.7314608186
 O          5.7049911818        1.8757974515       -0.6687372756
 O          3.8216270251        1.1440314880       -2.0453419309
 C          4.4886209129       -0.3797700507        0.0166434997
 C          4.1630692128       -1.4921900686       -0.7316997300
 C          4.2284081057       -2.7438013792       -0.1400029512
 C          4.6143924024       -2.8601427813        1.1860995782
 C          4.9448817480       -1.7335719052        1.9237178324
 C          4.8844282519       -0.4806867213        1.3357841225
 H          5.1428901233        0.4118616294        1.8815556426
 H          5.2471817194       -1.8280275631        2.9541628818
 H          4.6586284381       -3.8347266423        1.6459781248
 H          3.9740915569       -3.6209232789       -0.7138483219
 H          3.8608061028       -1.3550756409       -1.7578436935
 H          3.9883421718        2.7894674068        0.8541947488
 H          2.4817994129        2.7757785773        2.6783746799
 H          0.4780337227        1.7711507797        3.7119516767
 H         -0.7891818277        0.0253459920        2.5156592344
 C         -0.3337689724       -1.0160292401        0.1022965660
 H         -0.5455750609       -1.8125701661        0.8351862739
 C          0.4193539596       -1.6749734640       -1.0432593045
 C         -0.3070660027       -2.4035158842       -2.1326591646
 C          0.4120209392       -1.1248612455       -2.4365404875
 H          1.3267164182       -1.1650703133       -3.0108391467
 H         -0.1691433743       -0.2349842809       -2.6226505249
 H          0.1094694579       -3.3295428158       -2.4990201102
 H         -1.3870517007       -2.3872401230       -2.1121034824
 H          1.3503286033       -2.1194119515       -0.7035448880
 O         -2.7306783038       -2.4115913533        0.6193546836
