  62
        -98.94386208
 C         -2.0936218626       -0.8044338911       -0.0523120434
 C         -2.5467557446        0.5363669077       -0.0748657879
 C         -3.8699591992        0.7683146827        0.5187357307
 C         -4.5486315498       -0.2564601720        1.0660706272
 C         -5.8933448616       -0.1719745281        1.7359774479
 C         -7.0801979779       -0.2320284492        0.7648073608
 C         -7.2949732474        1.0261666117       -0.0772345899
 H         -8.2755900868        0.9329825391       -0.5482176468
 H         -7.3298971915        1.8980345105        0.5767966106
 C         -6.2405711278        1.2430484054       -1.1716080454
 H         -6.7370862665        1.5062320904       -2.1083499028
 H         -5.7003711922        0.3099122930       -1.3471862791
 C         -5.2300913672        2.3496114554       -0.8685621764
 H         -5.7440083529        3.3122988436       -0.8207745157
 H         -4.5116794215        2.3925147117       -1.6912014580
 C         -4.4453539072        2.1497575011        0.4348388132
 H         -3.6122668673        2.8570813917        0.4466745718
 H         -5.0857135280        2.3498145168        1.2937502794
 H         -7.9800294450       -0.4026664718        1.3603275810
 H         -6.9494791714       -1.0936651659        0.1060934637
 H         -5.9514538519        0.7421499490        2.3275092310
 H         -5.9579265630       -1.0279472311        2.4112509742
 O         -4.0630970484       -1.5262886422        1.0926727510
 C         -2.8389607554       -1.8342280658        0.5217847012
 O         -2.5242339767       -3.0393231601        0.5966936689
 O         -1.8853515827        1.4897166892       -0.5622753982
 C         -0.7482245269       -1.1612909160       -0.6586941605
 C          0.3476729667       -0.3926421868        0.0386101123
 C          0.4296103471       -0.4584898566        1.4273169557
 C          1.4134811760        0.2272357901        2.1126594753
 C          2.3441338523        0.9898272421        1.4285139868
 C          2.2810718958        1.0501258024        0.0435853185
 C          1.2931267217        0.3553673318       -0.6442466401
 H          1.2576938091        0.4189201565       -1.7203592778
 N          3.2364869471        1.8043406092       -0.6572715719
 S          4.8421703480        1.6350590113       -0.2198046730
 O          5.1187391312        2.4332118519        0.9482165334
 O          5.5953299181        1.9713527430       -1.4073828559
 C          5.0257008516       -0.0964412270        0.1718748090
 C          4.8038872666       -1.0167774414       -0.8336511835
 C          4.8953101149       -2.3670055277       -0.5387228477
 C          5.2027228963       -2.7725045895        0.7512108152
 C          5.4276640753       -1.8364389727        1.7482140205
 C          5.3371866291       -0.4841895600        1.4587952146
 H          5.5030780317        0.2758201057        2.2047759439
 H          5.6686464055       -2.1548765530        2.7496408597
 H          5.2677413454       -3.8247118164        0.9793518961
 H          4.7233507024       -3.0977057471       -1.3127257141
 H          4.5730983536       -0.6687933060       -1.8275788093
 H          3.1202523847        1.7910060114       -1.6596139835
 H          3.1086825491        1.5453042813        1.9467979280
 H          1.4561677244        0.1720455689        3.1898646077
 H         -0.2986447149       -1.0524775729        1.9629565219
 H         -0.5967755623       -2.2301514253       -0.4498437396
 C         -0.7819750710       -0.9582778036       -2.1590169508
 C          0.1194313933       -1.7602083431       -3.0480260973
 C         -1.3523215362       -2.0417263958       -3.0219582189
 H         -1.9485099178       -1.7600042637       -3.8770377446
 H         -1.6955236736       -2.9393813071       -2.5283049386
 H          0.5325273368       -1.2888118247       -3.9273446903
 H          0.7778311614       -2.4741762918       -2.5771416366
 H         -1.0004091938        0.0666965864       -2.4368496088
