  62
        -98.94365868
 C          1.7856935893       -0.5159756976       -0.4319524693
 C          2.9589838560       -0.5214407232       -1.2228278889
 C          4.2185261736       -0.7106952862       -0.4947783095
 C          4.1983277463       -0.8836963718        0.8396172706
 C          5.3977405763       -1.1096405421        1.7199011553
 C          6.1123985324        0.1803073281        2.1456313605
 C          6.9117133214        0.8760393936        1.0431078125
 H          7.5307633170        1.6347892575        1.5260252633
 H          7.5847208773        0.1572503819        0.5746509856
 C          6.0502691658        1.5536260000       -0.0317295478
 H          5.0302496373        1.6728710301        0.3412183443
 H          6.4368298131        2.5558158710       -0.2305373496
 C          6.0052871257        0.8121705992       -1.3679074758
 H          5.3397164780        1.3584887406       -2.0413847751
 H          7.0016102993        0.8024683108       -1.8154832510
 C          5.4986539927       -0.6328986752       -1.2707921086
 H          5.2967236277       -0.9939159336       -2.2822685106
 H          6.2590476067       -1.2684747172       -0.8176565122
 H          5.3710097592        0.8730084113        2.5505884183
 H          6.8001798170       -0.0799016205        2.9534996478
 H          5.0329325453       -1.6126296579        2.6179441119
 H          6.1044039311       -1.7687598983        1.2148973219
 O          3.0459893399       -0.8925738354        1.5610108922
 C          1.8157839250       -0.6884846585        0.9520161170
 O          0.8482350553       -0.6900701374        1.7354737371
 O          2.9537305978       -0.3722506619       -2.4746489525
 C          0.4440396406       -0.3014830620       -1.1071499353
 C         -0.2384573424        0.9199814412       -0.5431538902
 C          0.4952662030        2.0943168281       -0.3911540254
 C         -0.0899159208        3.2316890779        0.1284582686
 C         -1.4252302531        3.2291394441        0.4928092847
 C         -2.1704675059        2.0683121260        0.3330722796
 C         -1.5758611509        0.9232344300       -0.1808401382
 H         -2.1719006032        0.0340572752       -0.2971471842
 N         -3.5201449623        2.0274955840        0.7086077809
 S         -4.6291344289        1.1731290255       -0.2032505803
 O         -4.3154185397        1.2242806384       -1.6121153833
 O         -5.9124686746        1.7248515453        0.1777597852
 C         -4.5285226908       -0.5026660035        0.3891042975
 C         -4.7306807872       -1.5353965674       -0.5050752143
 C         -4.6990472167       -2.8412420947       -0.0412132511
 C         -4.4674525513       -3.0899421345        1.3026745632
 C         -4.2687475029       -2.0413692959        2.1879291761
 C         -4.3031500253       -0.7334322626        1.7314550033
 H         -4.1464105382        0.1026272376        2.3923628503
 H         -4.0841528085       -2.2384960229        3.2317304601
 H         -4.4396351586       -4.1067249827        1.6616974521
 H         -4.8528830723       -3.6581821791       -0.7284695397
 H         -4.8964263159       -1.2963278118       -1.5436671740
 H         -3.8993191979        2.8996351363        1.0465693952
 H         -1.8848616400        4.1170137994        0.8999300939
 H          0.4951816482        4.1314708630        0.2467190041
 H          1.5372087005        2.1003052333       -0.6817557316
 H          0.6763687441       -0.1026230029       -2.1645631066
 C         -0.3947230229       -1.5593365645       -1.0226553486
 C         -1.4153647240       -1.8616877161       -2.0775287007
 C         -0.1494342290       -2.6602721027       -2.0088532724
 H         -0.2021454603       -3.6820552353       -1.6647776718
 H          0.6063269830       -2.4910274901       -2.7619405926
 H         -2.3371222380       -2.3361972110       -1.7768807887
 H         -1.5302871385       -1.1502779965       -2.8816735065
 H         -0.6170414143       -1.8421399655        0.0004470130
