  62
        -98.94049995
 C          2.3168179202        0.7331102996        0.0472284000
 C          3.1456144301        0.2657449403        1.1017321903
 C          4.0709800399       -0.8227110501        0.7728004212
 C          4.0774326298       -1.3359660011       -0.4703254884
 C          4.9407551196       -2.4671668816       -0.9591204775
 C          6.3478705496       -2.0366971422       -1.3955584979
 C          7.2937124297       -1.6545457215       -0.2563647383
 H          7.3074248996       -2.4530076909        0.4860673323
 H          8.2969499897       -1.5881095120       -0.6819428184
 C          6.9572921500       -0.3207414709        0.4250993806
 H          7.8697920601        0.2677302591        0.5442848901
 H          6.2865475101        0.2564920887       -0.2156460398
 C          6.3223969100       -0.4577869696        1.8090440608
 H          7.0372485000       -0.9154689692        2.4963287611
 H          6.0914138702        0.5437408007        2.1806655200
 C          5.0278480299       -1.2811029694        1.8315277615
 H          4.5450604700       -1.1354796185        2.8007993014
 H          5.2531567997       -2.3400972895        1.7074859723
 H          6.7896342694       -2.8738852828       -1.9409351273
 H          6.2570122797       -1.1988436228       -2.0907982386
 H          5.0166910395       -3.2301847910       -0.1838663869
 H          4.4292964694       -2.8977985522       -1.8227449272
 O          3.2535704998       -0.8793065217       -1.4488947987
 C          2.3682805600        0.1703706786       -1.2283585196
 O          1.7050339400        0.4752068679       -2.2386808598
 O          3.1129604203        0.7437991613        2.2663872899
 C          1.3840865804        1.8841976701        0.3806287891
 C          0.0016044703        1.3994272106        0.7352018196
 C         -0.6299421096        1.8264664317        1.8971392792
 C         -1.9101259096        1.3968746521        2.2015815396
 C         -2.5855549098        0.5364344416        1.3549305804
 C         -1.9635514499        0.1040604005        0.1908947707
 C         -0.6792158899        0.5332521100       -0.1094928797
 H         -0.2044473600        0.2022423392       -1.0218847495
 N         -2.6444377801       -0.7708937601       -0.6782854786
 S         -4.1261606101       -0.2365974403       -1.2718161789
 O         -4.3100214802       -0.9273760013       -2.5290987484
 O         -4.1830269998        1.2065085997       -1.3137394901
 C         -5.3051206401       -0.8596865591       -0.0917952184
 C         -5.3836638004       -2.2269919790        0.0870702027
 C         -6.2968671904       -2.7310214381        0.9992840932
 C         -7.1126193802       -1.8642843773        1.7116017425
 C         -7.0244147700       -0.4942600775        1.5175303814
 C         -6.1126487699        0.0165253916        0.6066062609
 H         -6.0057875998        1.0739948814        0.4246131401
 H         -7.6600538498        0.1775985230        2.0715617709
 H         -7.8219624503       -2.2594277666        2.4215402528
 H         -6.3695331306       -3.7958493379        1.1515796940
 H         -4.7354480605       -2.8644971295       -0.4908523768
 H         -2.0659735402       -1.0900021908       -1.4432635383
 H         -3.5825501299        0.1984856919        1.5856280807
 H         -2.3875650395        1.7356290430        3.1081539394
 H         -0.1066968094        2.4928094821        2.5671942487
 H          1.8165802205        2.3338990207        1.2884424287
 C          1.3679286205        2.9646318192       -0.6938122818
 C          0.1890072305        3.2603395287       -1.5674247220
 C          0.5759457908        4.2215868195       -0.4860430628
 H          1.0186332109        5.1660603892       -0.7636110935
 H         -0.0604583592        4.2681892403        0.3848214372
 H          0.3846892505        3.5235817579       -2.5960569022
 H         -0.7128590496        2.6813823590       -1.4384401815
 H          2.3415156905        3.0788587687       -1.1606968719
