  62
        -98.94148277
 C         -1.9908756499       -1.5501298003        0.1666355081
 C         -2.5809952728       -0.6346041368        1.0774813195
 C         -3.4072988083        0.4301168017        0.4954420646
 C         -3.5902317634        0.4627426067       -0.8366481081
 C         -4.3605616729        1.5204342698       -1.5721339661
 C         -3.4406197015        2.6696721773       -2.0089753894
 C         -2.5278432362        3.1826785585       -0.8950144644
 H         -1.8366765074        2.3845189043       -0.6134979493
 H         -1.9318458366        3.9971704916       -1.3134117040
 C         -3.2688955978        3.6778935534        0.3555680414
 H         -2.8324513985        4.6289262964        0.6683581580
 H         -4.3148862327        3.8682445448        0.1125596677
 C         -3.1939686715        2.7336905121        1.5574734588
 H         -2.1530457146        2.4649743408        1.7542453864
 H         -3.5653689469        3.2708951157        2.4339212070
 C         -4.0051559746        1.4374500875        1.4364174123
 H         -5.0338093689        1.6691804516        1.1534929419
 H         -4.0175711499        0.9589646621        2.4198926206
 H         -2.8123864847        2.3173382790       -2.8307236856
 H         -4.0597992891        3.4870169141       -2.3829474177
 H         -4.8095922703        1.0681366099       -2.4579937137
 H         -5.1525956606        1.8988617521       -0.9289129762
 O         -3.0368830092       -0.4462699759       -1.6768456638
 C         -2.2001901542       -1.4556620230       -1.2095632326
 O         -1.7306713139       -2.1668545186       -2.1176793696
 O         -2.4220376677       -0.7091938160        2.3245783582
 C         -1.1095512660       -2.6280239986        0.7736574025
 C          0.3287868478       -2.1785740718        0.8282694570
 C          1.0673144366       -2.2754137870        2.0014598257
 C          2.3860236556       -1.8555950151        2.0406661911
 C          2.9914007148       -1.3262428870        0.9154237780
 C          2.2566799441       -1.2120035990       -0.2585163941
 C          0.9362306857       -1.6371125050       -0.2964988641
 H          0.3730718300       -1.5569335912       -1.2151594734
 N          2.8542271095       -0.6634094506       -1.4047817473
 S          3.7966188085        0.7069059489       -1.2308075695
 O          3.7295381165        1.3785576197       -2.5090910385
 O          5.1152297382        0.3281383995       -0.7872062149
 C          3.0010746143        1.6874163349        0.0304976903
 C          1.7182179815        2.1413392447       -0.2043598733
 C          1.0868220179        2.8981198435        0.7690661388
 C          1.7423307867        3.1813077707        1.9575985001
 C          3.0305811995        2.7200329856        2.1776886763
 C          3.6687063064        1.9663130404        1.2057020936
 H          4.6712317212        1.5918072705        1.3335135950
 H          3.5383971804        2.9441266762        3.1018023617
 H          1.2435971329        3.7667860206        2.7137162537
 H          0.0860923275        3.2622122178        0.5986190751
 H          1.2343927773        1.9068736282       -1.1398680044
 H          2.2306217434       -0.5894291412       -2.1948561901
 H          4.0205673340       -1.0064034921        0.9239761483
 H          2.9493922584       -1.9409357765        2.9569795662
 H          0.5975867905       -2.6724606466        2.8890989824
 H         -1.4622982906       -2.7225780285        1.8128014412
 C         -1.2787862340       -3.9896411507        0.1144311205
 C         -0.2365100978       -4.6314385986       -0.7462877942
 C         -0.5072403619       -5.1709078264        0.6242188785
 H         -1.0141565072       -6.1191146935        0.7188374507
 H          0.2358704565       -4.9872959128        1.3855075534
 H         -0.5742412439       -5.1905946518       -1.6055523283
 H          0.6885769375       -4.1023566209       -0.9134151340
 H         -2.3099139892       -4.1706505136       -0.1725306693
