  62
        -98.94021748
 C         -2.4425218756       -0.8982864612       -0.0196171589
 C         -2.6887750042        0.4679152660        0.2580402943
 C         -4.0722031447        0.8015848046        0.6209290133
 C         -4.9978314844       -0.1718156756        0.6995969925
 C         -6.4420378307        0.0074706740        1.0822569712
 C         -7.3478500974        0.4321684344       -0.0816783435
 C         -7.1740591514        1.8786353163       -0.5461390492
 H         -8.0105720696        2.1042657568       -1.2104811613
 H         -7.2506324516        2.5463857169        0.3124578762
 C         -5.8622347976        2.1498228689       -1.2959263973
 H         -5.4269461764        1.2030576814       -1.6241654452
 H         -6.0706703352        2.7340595508       -2.1950881729
 C         -4.8173295699        2.9198825393       -0.4881463635
 H         -5.1909623413        3.9220286925       -0.2664249787
 H         -3.9183276445        3.0235008690       -1.1012542769
 C         -4.4150134137        2.2456651379        0.8301651628
 H         -3.5217296234        2.7452715929        1.2130430773
 H         -5.2148205658        2.3458897408        1.5635288677
 H         -8.3817303645        0.2998925232        0.2453611374
 H         -7.1760125403       -0.2438592343       -0.9224058933
 H         -6.5193528065        0.7359500349        1.8897252299
 H         -6.7875143789       -0.9604456485        1.4516318356
 O         -4.7114211393       -1.4783826686        0.4520746452
 C         -3.4389540630       -1.8697296756        0.0696519859
 O         -3.3203963107       -3.0931540835       -0.1479592960
 O         -1.8036227989        1.3613364776        0.2105056096
 C         -1.0535611634       -1.3458686996       -0.4332476167
 C         -0.0369837487       -0.9744366956        0.6193848331
 C         -0.3206742816       -1.2327624733        1.9583750074
 C          0.5950251300       -0.9277804635        2.9462290648
 C          1.8225789400       -0.3776964871        2.6206908772
 C          2.1174848057       -0.1196484463        1.2880016190
 C          1.1895463728       -0.4156955073        0.2985012412
 H          1.4479072598       -0.2046588719       -0.7255151119
 N          3.3465269230        0.4533643965        0.9229408297
 S          4.0628708141       -0.0466871701       -0.5225000909
 O          3.5138564026        0.7221104053       -1.6106521087
 O          3.9750424207       -1.4842901604       -0.6461995927
 C          5.7529438175        0.4451252831       -0.2321696081
 C          6.6555075786       -0.4860628496        0.2462674124
 C          7.9592545392       -0.0885897249        0.4979244714
 C          8.3358487386        1.2266232983        0.2707021337
 C          7.4192757993        2.1495633892       -0.2110466926
 C          6.1143545105        1.7586264559       -0.4657438891
 H          5.3703117392        2.4377979892       -0.8483367848
 H          7.7165981910        3.1703259601       -0.3896264364
 H          9.3509305072        1.5336443989        0.4672440947
 H          8.6750270439       -0.8046069515        0.8685158328
 H          6.3201905945       -1.4993628255        0.3988643105
 H          4.0120149350        0.4735768668        1.6835505609
 H          2.5407825187       -0.1441975101        3.3920019962
 H          0.3558730849       -1.1291659638        3.9797872348
 H         -1.2750609662       -1.6744818635        2.2130527234
 H         -1.0900009462       -2.4444954573       -0.4920890499
 C         -0.7197228009       -0.7988834436       -1.8058496514
 C          0.2229880606       -1.5372708011       -2.7062169795
 C         -1.2417629639       -1.5025711997       -3.0207923347
 H         -1.5762581206       -0.9084873282       -3.8579635949
 H         -1.8203800783       -2.4011373758       -2.8615957430
 H          0.9014937035       -0.9644387031       -3.3213114371
 H          0.6456395089       -2.4606096428       -2.3384553616
 H         -0.6962760049        0.2853382272       -1.8261382277
