  62
        -98.93806927
 C          1.3321078309        1.6310115096        0.1884019710
 C          2.3368656903        1.1093337191        1.0385671114
 C          3.1291107905       -0.0184093109        0.5201781915
 C          2.8447672411       -0.5196274204       -0.6963770188
 C          3.5212586214       -1.6111658402       -1.4985502288
 C          4.4266965408       -2.6351408106       -0.8179463586
 C          3.7233002701       -3.5530588208        0.1804298406
 H          3.0432158803       -4.2110471605       -0.3665629300
 H          4.4801608197       -4.1822850011        0.6540857709
 C          2.9160037396       -2.8475689211        1.2677709504
 H          2.4953259791       -3.6152554912        1.9232674599
 H          2.0760568199       -2.3142854808        0.8171482101
 C          3.7082591092       -1.8749302215        2.1405760412
 H          4.5831926589       -2.3799614318        2.5543561016
 H          3.0649799988       -1.5858391617        2.9763219709
 C          4.1695672298       -0.5805925613        1.4448365019
 H          4.3388040095        0.1751976684        2.2173621523
 H          5.1109562901       -0.7258009713        0.9198710024
 H          4.8357823912       -3.2644288504       -1.6131065386
 H          5.2700376306       -2.1409579409       -0.3446018480
 H          2.7163371116       -2.1378848399       -2.0183189095
 H          4.1050945519       -1.0970015800       -2.2701887983
 O          1.8378609216       -0.0129654000       -1.4621057792
 C          1.0430906416        1.0447691100       -1.0448103093
 O          0.1453481821        1.3455375105       -1.8494159098
 O          2.5658541897        1.5673339287        2.1911504717
 C          0.4813593808        2.7744478995        0.7136567809
 C         -0.9738498292        2.4166774698        0.5516228499
 C         -1.8719959386        3.1368383402       -0.2229226803
 C         -3.1802086886        2.7044960905       -0.3619148213
 C         -3.6207885691        1.5542635603        0.2663476981
 C         -2.7295524297        0.8290676199        1.0470802783
 C         -1.4229874097        1.2653838396        1.1882330993
 H         -0.7274552202        0.6930662393        1.7908924095
 N         -3.1616663803       -0.3542659802        1.6861183277
 S         -3.6630380499       -1.5992409098        0.6830060869
 O         -4.8986340194       -1.2178630094        0.0484291363
 O         -3.7142795606       -2.7707762701        1.5288145065
 C         -2.3765278092       -1.7812730596       -0.5374323924
 C         -2.4494254884       -1.0599261092       -1.7116008622
 C         -1.4289840378       -1.1874441790       -2.6393948416
 C         -0.3608881181       -2.0306139193       -2.3785918813
 C         -0.2982401290       -2.7429525497       -1.1910611315
 C         -1.3119446695       -2.6140559999       -0.2560527320
 H         -1.3041413901       -3.1573034202        0.6758493878
 H          0.5364421908       -3.3957607599       -0.9879593312
 H          0.4296039223       -2.1236291191       -3.1067276008
 H         -1.4627801972       -0.6201441587       -3.5547746114
 H         -3.2980262982       -0.4180801990       -1.8822529624
 H         -2.4819825107       -0.7162175106        2.3407169179
 H         -4.6305668491        1.1945079905        0.1513007273
 H         -3.8658544581        3.2691834508       -0.9754112115
 H         -1.5414127881        4.0215144303       -0.7415491798
 H          0.7045769502        2.8054978291        1.7935179811
 C          0.8406866714        4.1448779196        0.1626329016
 C          2.2416989717        4.4527011296       -0.2721359874
 C          1.1409340822        4.3834674101       -1.2855995481
 H          0.7998202827        5.3066041503       -1.7313203380
 H          1.1028205525        3.5366985603       -1.9518143584
 H          2.6571697917        5.4179712594       -0.0242504469
 H          2.9611071515        3.6470439094       -0.2432246973
 H          0.3166200912        4.9385622795        0.6867378316
