  62
        -98.94667211
 C          1.1570460206        1.3561170917        0.2918716639
 C          1.3643843935        0.3392230577       -0.6715631092
 C          2.3455133636       -0.6921885089       -0.3099642994
 C          2.9254364669       -0.6781407283        0.9027911767
 C          3.9347934329       -1.6682810516        1.4170064447
 C          5.3775569392       -1.3560100565        0.9957757715
 C          5.6966113651       -1.6252574105       -0.4755554436
 H          6.7821398015       -1.5751115738       -0.5816585339
 H          5.3920988207       -2.6401784647       -0.7329591720
 C          5.0597791880       -0.6300952729       -1.4558408659
 H          4.7443690033        0.2644933249       -0.9139240888
 H          5.8061607939       -0.3126374824       -2.1876325035
 C          3.8668984276       -1.1825469930       -2.2366395593
 H          3.4750065800       -0.3837049558       -2.8713447797
 H          4.1995679405       -1.9951130094       -2.8863793086
 C          2.7196554397       -1.6971701688       -1.3568662527
 H          1.8447568707       -1.8578926959       -1.9909823527
 H          2.9981992942       -2.6436336473       -0.8953819518
 H          5.5930098987       -0.3110291874        1.2303952987
 H          6.0375081356       -1.9758460762        1.6071410012
 H          3.8797848598       -1.6333093029        2.5072035864
 H          3.6735101474       -2.6733161013        1.0846146379
 O          2.6319497257        0.2636242773        1.8368888795
 C          1.7801455656        1.3129024411        1.5443844545
 O          1.6522918603        2.1371772888        2.4715917852
 O          0.7824654908        0.2728169503       -1.7874795829
 C          0.2626897429        2.5655127043        0.0570988997
 C         -1.1908421971        2.2108644613        0.2517512477
 C         -1.9299976888        2.7602573530        1.2925559413
 C         -3.2549127339        2.4053861530        1.4832627846
 C         -3.8664977245        1.4884319787        0.6463582601
 C         -3.1307766257        0.9285581217       -0.3893583843
 C         -1.8099746085        1.2976796125       -0.5900470701
 H         -1.2410937997        0.8463642166       -1.3895010634
 N         -3.7275768805       -0.0584800945       -1.2115362167
 S         -3.9387733346       -1.5347081540       -0.4480926843
 O         -4.3409937442       -2.4637212452       -1.4789210971
 O         -4.8600594321       -1.3553607044        0.6448791833
 C         -2.3308695895       -1.9842009344        0.1843905459
 C         -1.8787391010       -1.3919074254        1.3470550520
 C         -0.6155459433       -1.7155185590        1.8145198576
 C          0.1647659782       -2.6279835434        1.1223099715
 C         -0.3014536053       -3.2102081480       -0.0457401394
 C         -1.5572161627       -2.8788414289       -0.5266929438
 H         -1.9582464769       -3.3080166065       -1.4309817189
 H          0.3107292406       -3.9166531939       -0.5826442837
 H          1.1411961692       -2.8850188747        1.5004816310
 H         -0.2415936020       -1.2498575047        2.7133553281
 H         -2.5161496389       -0.6993392816        1.8725276977
 H         -3.2055182736       -0.2130857434       -2.0642374315
 H         -4.8872560270        1.1768791832        0.7966609908
 H         -3.8157281052        2.8425152541        2.2954819072
 H         -1.4536101501        3.4578560629        1.9661385202
 H          0.5366864522        3.2904677542        0.8349382243
 C          0.4933720623        3.2075672537       -1.2977228044
 C          0.0957278556        4.6370615406       -1.5018097806
 C          1.5459600440        4.2636302197       -1.4382956750
 H          2.1289022853        4.2928915968       -2.3466684078
 H          2.1041724550        4.5348441295       -0.5537227982
 H         -0.3202409129        4.9250535216       -2.4550417425
 H         -0.3286598893        5.1637132380       -0.6604008593
 H          0.3629600079        2.5252968710       -2.1271040304
