  62
        -98.93970498
 C         -2.2412050001       -0.8055822098        0.0973372106
 C         -2.2722292698        0.5638343202        0.4712945307
 C         -3.2988750596        1.3953801004       -0.1694240092
 C         -4.1234117998        0.8369918707       -1.0739352292
 C         -5.2525150496        1.5459145810       -1.7630155192
 C         -6.5614444696        1.3992761113       -0.9742044791
 C         -6.4260261995        1.7260312112        0.5129852009
 H         -7.4160498095        1.6187865114        0.9613352409
 H         -5.7776893997        0.9835023810        0.9838025008
 C         -5.8814267991        3.1308528110        0.8068023009
 H         -5.9820383790        3.7601276011       -0.0781295591
 H         -6.4849976490        3.5825218012        1.5968276810
 C         -4.4286079191        3.1610672307        1.2858117809
 H         -4.3006920293        2.4613660606        2.1157309908
 H         -4.2166292289        4.1632175506        1.6681108309
 C         -3.3680287092        2.8443867104        0.2233670008
 H         -3.5268936891        3.4737561405       -0.6549147592
 H         -2.3883161892        3.0874909202        0.6458670308
 H         -7.3110037795        2.0519011215       -1.4252378291
 H         -6.9073651499        0.3674172714       -1.0674232591
 H         -4.9986519494        2.5980780609       -1.8757267791
 H         -5.3828984498        1.1040239511       -2.7521779592
 O         -4.0506033501       -0.4694335293       -1.4258072193
 C         -3.1241005803       -1.3274623996       -0.8488731393
 O         -3.2112417706       -2.4978993995       -1.2666036994
 H          1.2665606399       -0.6039183707        0.9483093305
 C          1.1852961797       -1.2871004307        0.1156488705
 C         -0.0198387804       -1.9280969404       -0.1381623795
 C         -0.1056593307       -2.7872713403       -1.2290507795
 C          0.9920911992       -2.9905578805       -2.0447605996
 C          2.1906571494       -2.3481667408       -1.7909326896
 C          2.2891234897       -1.4911957209       -0.7005734196
 N          3.5131428698       -0.8696197812       -0.3981521596
 S          3.5232322702        0.6834228688        0.2625711805
 O          3.1925393603        0.5967181188        1.6621524905
 O          2.7181407604        1.5741576390       -0.5438556495
 C          5.2545195703        1.0725183783        0.0826072504
 C          5.6738115805        1.8642469883       -0.9694325596
 C          7.0275010005        2.1265439379       -1.1130909896
 C          7.9338904304        1.5925401077       -0.2096715896
 C          7.4978632703        0.8002712378        0.8421696503
 C          6.1460421402        0.5358306781        0.9925221504
 H          5.7591960901       -0.0661420319        1.7980448804
 H          8.2051851602        0.3888991876        1.5440622703
 H          8.9865752705        1.7971858874       -0.3245211097
 H          7.3690790807        2.7449139479       -1.9274823096
 H          4.9321435505        2.2630581185       -1.6429010895
 H          4.1794245598       -0.9420109714       -1.1556781696
 H          3.0457520293       -2.5100942410       -2.4296857696
 H          0.9116917590       -3.6548164505       -2.8920506796
 H         -1.0449032308       -3.2707511601       -1.4458660995
 C         -1.1975632103       -1.6789353501        0.7744013906
 H         -0.8331588702       -1.0794370602        1.6204583906
 C         -1.7636051506       -2.9768307700        1.3170113105
 C         -0.9982839308       -3.7107346902        2.3753931005
 C         -2.2814320206       -3.0183102399        2.7218314606
 H         -3.1537409107       -3.6190031897        2.9313361406
 H         -2.2292354403       -2.1073158799        3.3007321006
 H         -0.9868161910       -4.7893193502        2.3484355305
 H         -0.0751043607       -3.2676719605        2.7184964905
 H         -2.2920374608       -3.5623989298        0.5765503605
 O         -1.4831550296        1.0661867299        1.3178654107
