  62
        -98.93606520
 C         -2.4859262177       -0.1335598834       -0.5945265838
 C         -2.1815165425       -0.6522506465        0.6877157093
 C         -1.7710507222       -2.0642069853        0.7239603077
 C         -1.7020392950       -2.7632773164       -0.4225612040
 C         -1.3004775703       -4.2062041697       -0.5307195696
 C          0.2033339431       -4.3653970499       -0.7869580400
 C          1.0857910818       -3.5672628717        0.1726972842
 H          0.9595202671       -2.4993342392       -0.0211938614
 H          2.1242489842       -3.8112339210       -0.0649301823
 C          0.8234181047       -3.8400677123        1.6604273456
 H          1.7844752048       -3.9378526682        2.1694383852
 H          0.2944778811       -4.7869996559        1.7791719465
 C          0.0518311407       -2.7276145999        2.3740008759
 H          0.4962434280       -1.7619548345        2.1205845470
 H          0.1583008727       -2.8734852679        3.4525505671
 C         -1.4497184909       -2.6556770712        2.0672643540
 H         -1.9098136378       -1.9894360142        2.8028701918
 H         -1.8979480332       -3.6466759658        2.1715443318
 H          0.4195243953       -4.0313381762       -1.8047521792
 H          0.4519331888       -5.4265110089       -0.7160315825
 H         -1.5785460414       -4.7202643398        0.3875726646
 H         -1.8490455125       -4.6489035271       -1.3644913820
 O         -1.9866150176       -2.2245247564       -1.6380784569
 C         -2.3666822161       -0.8984190156       -1.7526966965
 O         -2.5835673487       -0.5245120890       -2.9260373613
 H         -0.3772001293        1.2553914971       -1.1795383520
 C         -0.5954518144        1.9749877705       -0.4016826440
 C         -1.9197371202        2.1838536617       -0.0202183711
 C         -2.1596323633        3.1235989129        0.9732250926
 C         -1.1090010839        3.8006110254        1.5725868447
 C          0.2022668481        3.5480547841        1.2218960049
 C          0.4581146834        2.6161903048        0.2225153518
 N          1.7737167414        2.3089959363       -0.1764415584
 S          2.0794147181        0.6725158076       -0.4871780973
 O          1.7616539944        0.3958644985       -1.8674016572
 O          1.4284945817       -0.1494318284        0.5044329812
 C          3.8487593339        0.6197083665       -0.2694271338
 C          4.6478885854        1.1945420729       -1.2400372860
 C          6.0227048021        1.1843366401       -1.0675449369
 C          6.5725235956        0.6019145157        0.0652498425
 C          5.7580092639        0.0266794123        1.0286839484
 C          4.3814511463        0.0357011469        0.8636397547
 H          3.7075843879       -0.4024886989        1.5823791131
 H          6.1877202632       -0.4283475405        1.9064306044
 H          7.6429885491        0.5944181989        0.1964388445
 H          6.6591805741        1.6283854504       -1.8157295983
 H          4.1750380080        1.6251212682       -2.1073143942
 H          2.4652674984        2.6919156069        0.4550620643
 H          1.0170651811        4.0560619845        1.7150601083
 H         -1.3217119429        4.5221263784        2.3471341008
 H         -3.1558614690        3.3272684731        1.3202216598
 C         -2.9146719664        1.3215276889       -0.7614795252
 H         -2.7738405398        1.5393208150       -1.8346997819
 C         -4.4137122023        1.4085724900       -0.5173737637
 C         -5.0670068072        1.5711144546        0.8187872847
 C         -5.1826466672        2.6583941825       -0.2096995839
 H         -6.1372160754        2.7856352003       -0.6990096503
 H         -4.6427285133        3.5806750493       -0.0744877615
 H         -4.4284379787        1.7009017770        1.6771024351
 H         -5.9408166950        0.9696396139        1.0247118035
 H         -4.9075468812        0.7157858227       -1.1967984910
 O         -2.2655836932        0.0168942811        1.7488800156
