  62
        -98.93826839
 C         -2.8334780085       -0.1554518739       -0.0336367332
 C         -2.3303197276        0.7144014933       -1.0320224351
 C         -2.2063602008        2.1272060627       -0.6443057880
 C         -2.5126177401        2.5146040348        0.6057007330
 C         -2.4346703191        3.9163255946        1.1460915227
 C         -1.0270477681        4.3306995152        1.5958801495
 C         -0.0392495638        4.6222234151        0.4656193506
 H         -0.4950839991        5.3100959982       -0.2475917053
 H          0.8138684003        5.1344161851        0.9149770318
 C          0.4743656501        3.3774554828       -0.2710324164
 H          0.3156469598        2.4886939131        0.3461832733
 H          1.5544667320        3.4704277557       -0.4118404214
 C         -0.1427472050        3.1530960825       -1.6522749889
 H          0.2379399854        2.2077881457       -2.0481705692
 H          0.1723542419        3.9527559360       -2.3270253862
 C         -1.6747475894        3.0865963246       -1.6671976864
 H         -2.0944789753        4.0792699001       -1.5062849905
 H         -1.9888104372        2.7275394288       -2.6507637758
 H         -1.1319972480        5.2351116892        2.1999906811
 H         -0.6196163326        3.5459086360        2.2383324416
 H         -2.8021194113        4.6202279997        0.3984512366
 H         -3.0981924901        3.9511381045        2.0128418511
 O         -2.9625400662        1.6435634233        1.5480765657
 C         -3.1172782695        0.3001902941        1.2570981482
 O         -3.5260397761       -0.3862849279        2.2160438523
 O         -1.9955950166        0.3570973639       -2.1917105961
 C         -3.0054492724       -1.6544752681       -0.2345734278
 C         -1.7257679307       -2.3423386788        0.1672023855
 C         -1.7087549230       -3.3875140432        1.0817048617
 C         -0.5089789119       -3.9383546817        1.5009868370
 C          0.6961026388       -3.4507503354        1.0269213555
 C          0.6851399569       -2.4134920933        0.1051475086
 C         -0.5152067971       -1.8772146865       -0.3277947989
 H         -0.5117416366       -1.0657238655       -1.0416383260
 N          1.9171577226       -1.8592126659       -0.3400693769
 S          2.5199834646       -0.8005557247        0.8429421541
 O          2.8957693637       -1.5878674883        1.9893438380
 O          1.5714443997        0.2659298724        1.0845607850
 C          3.9733691181       -0.1667747405        0.0298649301
 C          5.1708857740       -0.8409305587        0.1695427468
 C          6.2873579687       -0.3658384678       -0.5001239364
 C          6.1867943956        0.7655609077       -1.2959617907
 C          4.9766611892        1.4300453528       -1.4281550479
 C          3.8564384777        0.9597465119       -0.7613648655
 H          2.8971404610        1.4492413702       -0.8276361896
 H          4.9001918489        2.3095612002       -2.0470983055
 H          7.0570067867        1.1338521259       -1.8159179510
 H          7.2302860000       -0.8785725704       -0.3997087667
 H          5.2003942253       -1.7116411365        0.8032770298
 H          1.7645809657       -1.3069782272       -1.1767859557
 H          1.6387595455       -3.8391708857        1.3756614102
 H         -0.5123864524       -4.7440941874        2.2193025881
 H         -2.6424127366       -3.7480239505        1.4885102137
 H         -3.7839871123       -1.9588843322        0.4828606600
 C         -3.4903902989       -2.0336254354       -1.6259317610
 C         -2.6456934122       -2.7639814427       -2.6222969422
 C         -3.7769960083       -3.4716531826       -1.9433413407
 H         -4.6609572415       -3.7091571903       -2.5152300535
 H         -3.5260048104       -4.2035525032       -1.1902579012
 H         -2.7494082188       -2.4883177254       -3.6604868186
 H         -1.6382709031       -3.0292438497       -2.3418884253
 H         -4.1800258109       -1.2994168091       -2.0282957399
