  62
        -98.93229263
 C         -2.2367510017       -1.5339723012        0.3119759528
 C         -2.6015227699       -0.6234142372       -0.7062645063
 C         -3.6146765956        0.3941984976       -0.3533390659
 C         -4.0780225680        0.4554873486        0.9069104525
 C         -5.0950708158        1.3965720616        1.5018237752
 C         -4.9803192601        2.8787010937        1.1136983929
 C         -6.0996829592        3.3535633754        0.1852388135
 H         -7.0359580243        2.8930240549        0.5072552642
 H         -6.2121095045        4.4340916009        0.2986769079
 C         -5.8798247202        3.0656599337       -1.2987979408
 H         -5.0933634538        3.7201196770       -1.6811091381
 H         -6.8016107427        3.3235523260       -1.8254869073
 C         -5.5102361540        1.6198657058       -1.6357011260
 H         -6.0978927685        0.9260148874       -1.0356695424
 H         -5.7753296251        1.4422346723       -2.6800940227
 C         -4.0133971677        1.3145382863       -1.4752015953
 H         -3.6389605653        0.8262985263       -2.3805112329
 H         -3.4486734669        2.2472914675       -1.3838425416
 H         -4.0063689736        3.0713482270        0.6658392546
 H         -5.0331047001        3.4668098329        2.0314768382
 H         -6.0937461841        1.0260769339        1.2567922948
 H         -4.9797978953        1.2870554680        2.5826381982
 O         -3.6643951930       -0.4167031891        1.8708471828
 C         -2.7607115896       -1.4252840219        1.6027706175
 O         -2.5046714683       -2.1565101295        2.5800265054
 H         -0.0098718921       -0.6045804822       -1.1067420298
 C          0.6397238718       -1.0931059645       -0.3950346614
 C          0.1651440453       -2.1888780095        0.3133568574
 C          1.0088610410       -2.8040113639        1.2300333425
 C          2.2957584910       -2.3335466933        1.4267897074
 C          2.7669178806       -1.2458973494        0.7134472736
 C          1.9286529956       -0.6196428731       -0.1998197637
 N          2.3976050325        0.4832135548       -0.9368726059
 S          3.0909009212        1.7505701899       -0.0804304850
 O          2.5533623252        1.8426792611        1.2581297912
 O          2.9257573670        2.9162072449       -0.9213924720
 C          4.8176819475        1.3194166284       -0.0204705513
 C          5.4586944893        1.0365287024       -1.2108891735
 C          6.8034965345        0.7037616546       -1.1836641889
 C          7.4815888872        0.6631753592        0.0256938936
 C          6.8247876610        0.9539498599        1.2115553700
 C          5.4789215238        1.2861949675        1.1915607939
 H          4.9247256014        1.5123036585        2.0886884648
 H          7.3533356250        0.9223302184        2.1507494106
 H          8.5280994761        0.4029339739        0.0440519148
 H          7.3175010411        0.4767083123       -2.1037210677
 H          4.8959180542        1.0814013937       -2.1282642659
 H          1.7199952050        0.8321208463       -1.6004399060
 H          3.7669228922       -0.8735981477        0.8648842170
 H          2.9395382959       -2.8187125142        2.1443959401
 H          0.6430668563       -3.6436433704        1.8028217663
 C         -1.2474824769       -2.6715751795        0.1072491654
 H         -1.4716617915       -3.3881833890        0.9129177677
 C         -1.4493778560       -3.4010775360       -1.2150235666
 C         -0.4584165901       -3.3890893901       -2.3364400556
 C         -0.6410640599       -4.6285232968       -1.5168058690
 H         -1.1357623590       -5.4794265707       -1.9598449397
 H          0.1440790412       -4.8845434267       -0.8212769644
 H          0.4526393287       -2.8258891635       -2.2110986015
 H         -0.8475388723       -3.3666108331       -3.3430297827
 H         -2.4953736513       -3.4263597620       -1.5033027723
 O         -2.1199988664       -0.6363977136       -1.8700306175
