  62
        -98.94282608
 C         -1.1581608910       -1.6908569813        0.1988865071
 C         -1.6001995242       -0.8196120847        1.2195203869
 C         -2.8224116783       -0.0451223535        0.9446434941
 C         -3.4239442870       -0.1834116476       -0.2494240197
 C         -4.6286807184        0.5562350313       -0.7620700803
 C         -4.2003115644        1.8116483889       -1.5414364239
 C         -4.0366411905        3.0713994802       -0.6931647794
 H         -3.6295489721        3.8489733968       -1.3438039689
 H         -5.0192853606        3.4060591521       -0.3522603135
 C         -3.1168919737        2.9262608032        0.5217685382
 H         -2.2135585535        2.3828654478        0.2347077165
 H         -2.7976317803        3.9283516584        0.8170969216
 C         -3.8013665271        2.2500740874        1.7192234394
 H         -3.6521853857        2.8627764398        2.6110949960
 H         -4.8765420627        2.2191283866        1.5421918267
 C         -3.2933941040        0.8436243225        2.0634848881
 H         -4.0716349101        0.3128117991        2.6230994317
 H         -2.4306470446        0.9262379397        2.7324101483
 H         -3.2557716715        1.5907775461       -2.0463865361
 H         -4.9448044081        2.0175546143       -2.3136159623
 H         -5.1405837133       -0.1221516552       -1.4479263146
 H         -5.3038923294        0.8088408056        0.0501333187
 O         -2.9539313063       -1.0203534652       -1.2155437527
 C         -1.8093908996       -1.7767036214       -1.0309359415
 O         -1.4867941648       -2.4715199700       -2.0135790875
 O         -0.9894132141       -0.6838797976        2.3156397628
 C          0.1219359620       -2.4771467956        0.4056613553
 C          1.1912421618       -2.0097767615       -0.5534940130
 C          2.1607710891       -2.8506047732       -1.0867058321
 C          3.1294896796       -2.3473870793       -1.9382563472
 C          3.1693293211       -1.0025394210       -2.2605300617
 C          2.2056957122       -0.1529928266       -1.7294433831
 C          1.2324512122       -0.6639693854       -0.8871204248
 H          0.4740911343        0.0008625301       -0.5061220461
 N          2.1909365490        1.2170026061       -2.0274192255
 S          1.6762485081        2.3136415093       -0.8747713801
 O          0.2450664408        2.2516158110       -0.7195077819
 O          2.2057284996        3.5806081862       -1.3336525444
 C          2.5160991492        1.8202241592        0.6197386889
 C          1.8312351654        1.2407138133        1.6671678435
 C          2.5425637685        0.8196421968        2.7804363773
 C          3.9171667027        0.9857819720        2.8293179864
 C          4.5908852121        1.5803313537        1.7724990555
 C          3.8864667483        1.9985052967        0.6563956044
 H          4.3718915543        2.4738511483       -0.1805198066
 H          5.6597686401        1.7141434582        1.8145309825
 H          4.4648967948        0.6517968850        3.6963708639
 H          2.0079660058        0.3564708978        3.5945848000
 H          0.7615779069        1.1124174264        1.6112077603
 H          2.9833886387        1.5547671057       -2.5524017683
 H          3.9271464419       -0.6143586970       -2.9234452335
 H          3.8707021220       -3.0129535835       -2.3537533158
 H          2.1522781350       -3.9003407517       -0.8428441016
 H          0.4569023080       -2.2253824334        1.4241304802
 C         -0.1370692541       -3.9677479465        0.3341846332
 C          0.6597670323       -4.9179260399        1.1761649129
 C         -0.7756410826       -4.6462309885        1.5081016710
 H         -1.5072974221       -5.4180721763        1.3225220352
 H         -0.9956335215       -4.0362277395        2.3722128812
 H          0.9137000534       -5.8827229616        0.7635284898
 H          1.4147796387       -4.5005351380        1.8250675105
 H         -0.4415916632       -4.2883638313       -0.6555511253
