  62
        -98.94492166
 C         -1.9634982196       -0.8531245082        0.0702872492
 C         -2.2578234050        0.1124131346        1.0601991308
 C         -2.3491910311        1.5021488684        0.5965686975
 C         -2.1198246193        1.7775444423       -0.7006045942
 C         -2.2099792618        3.1444851474       -1.3144599751
 C         -3.6214579809        3.4260554350       -1.8486134541
 C         -4.7330733619        3.1163676556       -0.8460363847
 H         -5.6810636570        3.3798377774       -1.3197233221
 H         -4.7531932594        2.0402658944       -0.6596904650
 C         -4.6054612167        3.8587270308        0.4913910357
 H         -5.5843679846        4.2567443749        0.7663199562
 H         -3.9289479386        4.7068621366        0.3812087067
 C         -4.1364812282        2.9867302433        1.6575294596
 H         -4.7540083039        2.0868979891        1.7139032655
 H         -4.2875117765        3.5467764811        2.5841329781
 C         -2.6642302957        2.5567302087        1.6202341487
 H         -2.0254259120        3.4314208128        1.4783736400
 H         -2.4205557017        2.1118779370        2.5898240581
 H         -3.7817277008        2.8135552533       -2.7387549061
 H         -3.6752008391        4.4757136376       -2.1428704080
 H         -1.4974458431        3.1931912255       -2.1398316430
 H         -1.9349921150        3.8880708381       -0.5686062437
 O         -1.8260823743        0.8250886624       -1.6218072967
 C         -1.7261061389       -0.5086132526       -1.2605803923
 O         -1.4419543562       -1.2770738254       -2.1998809748
 O         -2.4330240009       -0.1761574581        2.2766994989
 C         -1.7959040258       -2.3046832713        0.4806609069
 C         -0.3948884549       -2.7588738672        0.1497222573
 C         -0.1014617329       -3.9909018588       -0.4200425182
 C          1.2056027438       -4.3220815115       -0.7342302985
 C          2.2389963677       -3.4340984770       -0.5014396108
 C          1.9575658364       -2.2065972917        0.0889498727
 C          0.6535236353       -1.8908511325        0.4282952848
 H          0.4482147004       -0.9329334232        0.8853536384
 N          2.9827182281       -1.2834685368        0.3649385804
 S          2.6215660240        0.3622804812        0.2356634602
 O          2.0075822291        0.7997002071        1.4655634198
 O          1.8883825916        0.6293175259       -0.9814326901
 C          4.2711014824        1.0329155242        0.1272239475
 C          5.0122475789        1.1545907800        1.2877339727
 C          6.3073634833        1.6409823057        1.2073720153
 C          6.8372548887        1.9950048765       -0.0247535197
 C          6.0808426705        1.8695868746       -1.1802269295
 C          4.7850939929        1.3820969721       -1.1070619677
 H          4.1560944774        1.2727213155       -1.9762218982
 H          6.4935689306        2.1486394997       -2.1362853338
 H          7.8452524452        2.3738156667       -0.0847647529
 H          6.8972912715        1.7423434556        2.1039117035
 H          4.5533669524        0.8754271293        2.2217905054
 H          3.8455901241       -1.5072172358       -0.1129130844
 H          3.2534676355       -3.6841323853       -0.7722961593
 H          1.4193920829       -5.2793530711       -1.1849964431
 H         -0.8973716858       -4.6858867894       -0.6321128990
 H         -1.9142650885       -2.3163923027        1.5751169689
 C         -2.8749782065       -3.1682576473       -0.1383196539
 C         -3.3600869421       -4.3981460211        0.5678574990
 C         -4.2356931095       -3.1850022526        0.4891216406
 H         -5.1006878364       -3.2106081856       -0.1564130378
 H         -4.3744037134       -2.5929023211        1.3820914639
 H         -3.6283607611       -5.2601053349       -0.0241153906
 H         -2.9117007124       -4.6365985483        1.5204154200
 H         -2.8218570770       -3.1821158199       -1.2212776771
