  62
        -98.94337308
 C         -1.2259821840       -0.6593467194        0.5993590270
 C         -1.9394658692       -0.4913590091       -0.6129428134
 C         -2.9321907192        0.5924387833       -0.6210318581
 C         -3.0423997060        1.4133478470        0.4377907337
 C         -3.9914687954        2.5737221795        0.5668384508
 C         -5.4000282184        2.1787166098        1.0320389918
 C         -6.2508628415        1.4525654984       -0.0108592724
 H         -7.2740099147        1.4319605420        0.3696128714
 H         -6.2588987327        2.0297970829       -0.9359467908
 C         -5.8040668484        0.0134222364       -0.3036246039
 H         -6.6759741605       -0.6443142775       -0.3107929970
 H         -5.1478843701       -0.3339955396        0.4977237127
 C         -5.0886373503       -0.1680419939       -1.6424240057
 H         -4.7869942771       -1.2148297608       -1.7306461999
 H         -5.7786580684        0.0532314150       -2.4595524778
 C         -3.8362285708        0.7024754586       -1.8114822251
 H         -3.2811662614        0.3447688248       -2.6823855865
 H         -4.1184986605        1.7415291138       -1.9809576023
 H         -5.3106743423        1.5578939949        1.9266091100
 H         -5.9177855046        3.0977719199        1.3161460573
 H         -4.0543618457        3.1027289577       -0.3847395179
 H         -3.5579600210        3.2479669047        1.3089556003
 O         -2.2571979784        1.2889214091        1.5412965242
 C         -1.3417077208        0.2546617895        1.6492398745
 O         -0.6874671150        0.2620111574        2.7124730537
 O         -1.7695660907       -1.1990123694       -1.6387034087
 C         -0.1881383179       -1.7548285502        0.7681598986
 C          0.7676170032       -1.7388101982       -0.4001687513
 C          1.1503875377       -2.8636924802       -1.1180284881
 C          2.0633439610       -2.7516431055       -2.1531077313
 C          2.6303838794       -1.5325841072       -2.4767620877
 C          2.2504588677       -0.4000438938       -1.7648766788
 C          1.3238736153       -0.5133988635       -0.7431881404
 H          1.0076053388        0.3761538318       -0.2197224474
 N          2.7963994415        0.8603874793       -2.0516680483
 S          3.0508164317        1.9461878548       -0.8076773715
 O          1.8072704959        2.5544593621       -0.4034026622
 O          4.0533323614        2.8524680957       -1.3271312322
 C          3.7482499034        0.9736505795        0.5164223793
 C          3.0357841568        0.7384978380        1.6742424835
 C          3.5983466472       -0.0638036900        2.6551384764
 C          4.8567092602       -0.6121134875        2.4645031779
 C          5.5652020500       -0.3580448908        1.2995977003
 C          5.0066720144        0.4391841448        0.3147879862
 H          5.5302447228        0.6679432183       -0.5991205859
 H          6.5463126723       -0.7808887981        1.1560842286
 H          5.2868414131       -1.2382800006        3.2300696568
 H          3.0401343433       -0.2569336825        3.5576467331
 H          2.0555826609        1.1727167378        1.7996564110
 H          3.5505869758        0.8607141024       -2.7220449744
 H          3.3468743863       -1.4511256898       -3.2795045937
 H          2.3442063268       -3.6310930683       -2.7123644740
 H          0.7201624240       -3.8234596223       -0.8843266750
 H          0.3903319321       -1.4536071631        1.6581910327
 C         -0.7617406406       -3.1305824781        1.0748365389
 C         -2.1416464507       -3.2874975719        1.6396204178
 C         -1.8442347490       -3.7545542162        0.2480878336
 H         -1.7996060990       -4.8185276661        0.0659272048
 H         -2.2274440462       -3.1828979875       -0.5815159672
 H         -2.2996745315       -4.0255314605        2.4118925476
 H         -2.7362808887       -2.3932934476        1.7622274547
 H         -0.0072502892       -3.8027119330        1.4717304317
