  62
        -98.94528860
 C         -1.7491239755       -0.4831919834        0.8394158449
 C         -2.0674413019        0.0662180447       -0.4282031216
 C         -2.1255251484        1.5359132654       -0.4950009660
 C         -1.8241716169        2.2628743249        0.5945427328
 C         -1.8339723332        3.7625150705        0.6641470376
 C         -0.4611502318        4.3635446560        0.3362579913
 C          0.1612317515        3.8324806860       -0.9552316242
 H          0.4267110020        2.7795142881       -0.8367289669
 H          1.0960945707        4.3758483378       -1.1139670854
 C         -0.7271847032        3.9709026359       -2.1987762751
 H         -0.1115461887        4.3297915683       -3.0263704712
 H         -1.5056120137        4.7155949109       -2.0245606430
 C         -1.3645698771        2.6570218693       -2.6564745669
 H         -0.5984207581        1.8772519182       -2.6867837303
 H         -1.7381574200        2.7942016743       -3.6752837420
 C         -2.5348962717        2.1503222091       -1.8033279726
 H         -3.0333947463        1.3544390292       -2.3648120954
 H         -3.2521892878        2.9592391936       -1.6430343523
 H          0.2220942558        4.1458430664        1.1606597900
 H         -0.5711937896        5.4476565389        0.2658958739
 H         -2.1125984537        4.0536154167        1.6788888032
 H         -2.5813776518        4.1435041417       -0.0294133123
 O         -1.4491701805        1.7023637398        1.7737299593
 C         -1.3918039993        0.3245627088        1.9206990929
 O         -1.0093744407       -0.0505301630        3.0470359674
 O         -2.3173490252       -0.6214116637       -1.4512471181
 C         -1.6330451105       -1.9844800393        1.0557980759
 C         -0.7821719588       -2.5656334611       -0.0461273271
 C         -1.1658820720       -3.6084307483       -0.8771255735
 C         -0.3223359498       -4.0365365146       -1.8885090689
 C          0.8987135988       -3.4249341136       -2.1057972750
 C          1.2924626804       -2.3819492969       -1.2746485312
 C          0.4672725681       -1.9889024168       -0.2366112022
 H          0.7752618623       -1.1831765872        0.4136483524
 N          2.5182150988       -1.7209001777       -1.4519466113
 S          2.5902100058       -0.0675468420       -1.1845551705
 O          1.3478869997        0.5905866195       -1.5074428489
 O          3.7518999361        0.3639290114       -1.9349953562
 C          2.9509144691        0.0779931957        0.5524085241
 C          2.1602375914        0.8746653312        1.3556190773
 C          2.4568739441        0.9766559551        2.7050676093
 C          3.5412969046        0.2866156704        3.2241579564
 C          4.3328120750       -0.5030708147        2.4032918231
 C          4.0373715482       -0.6110892131        1.0540782516
 H          4.6263482311       -1.2143616463        0.3836624554
 H          5.1751211683       -1.0371025012        2.8126659221
 H          3.7662870287        0.3648465608        4.2760781907
 H          1.8277468228        1.5785090082        3.3415538465
 H          1.3152258178        1.3860917471        0.9197434077
 H          3.0324411845       -1.9905026271       -2.2780462239
 H          1.5385975887       -3.7411811397       -2.9157035872
 H         -0.6319911376       -4.8446756201       -2.5339858786
 H         -2.1334906955       -4.0666834609       -0.7543979321
 H         -1.0705656006       -2.0870529441        1.9991456155
 C         -2.9541192144       -2.7083783630        1.2627229228
 C         -4.1536595474       -1.9863156631        1.7984318813
 C         -4.1473596663       -2.4832989206        0.3854900521
 H         -4.7683822875       -3.3329243693        0.1408860864
 H         -4.0505527785       -1.7673799568       -0.4146021861
 H         -4.7764001105       -2.4909914593        2.5218243591
 H         -4.0621275325       -0.9226637351        1.9659133938
 H         -2.8045966650       -3.7202677027        1.6270579154
