  62
        -98.94274858
 C         -0.7399722304       -1.9655842727        0.2262232439
 C         -1.3878488735       -1.1399252876        1.1743758343
 C         -2.6521876383       -0.5303170971        0.7456490119
 C         -3.1312438240       -0.7919930708       -0.4834915754
 C         -4.4036136933       -0.2528288083       -1.0796222978
 C         -4.4194919768        1.2683204503       -1.3303696085
 C         -5.0696430440        2.0832175907       -0.2049553991
 H         -5.6746589938        2.8757555045       -0.6501081646
 H         -5.7547845461        1.4374418947        0.3462395367
 C         -4.1025691665        2.7557814172        0.7741590040
 H         -3.6883317490        3.6522867372        0.3065858405
 H         -4.6772805431        3.0730294722        1.6475553530
 C         -2.9207195450        1.9038568670        1.2387887021
 H         -2.1774005644        1.8503105884        0.4380807477
 H         -2.4389574679        2.4214987084        2.0718996288
 C         -3.2886078611        0.4688428165        1.6676088145
 H         -2.8958250141        0.2682135614        2.6667995641
 H         -4.3695819572        0.3391707501        1.6894932884
 H         -3.4014594252        1.6150765560       -1.5143605475
 H         -4.9876974190        1.4358028650       -2.2469882337
 H         -4.5260415388       -0.7741415277       -2.0311430726
 H         -5.2428482625       -0.5264684687       -0.4361683226
 O         -2.5009935346       -1.6292636653       -1.3511164859
 C         -1.2715793335       -2.1937037994       -1.0429069492
 O         -0.7742444324       -2.8718349611       -1.9624613898
 O         -0.9211699615       -0.9093402790        2.3232323737
 C          0.6398112676       -2.5042857550        0.5498197144
 C          1.6737668319       -1.8674805215       -0.3508823619
 C          2.8449526102       -2.5097557418       -0.7352850094
 C          3.7608672828       -1.8644636616       -1.5485603764
 C          3.5419085618       -0.5703116269       -1.9859520613
 C          2.3748424844        0.0819436187       -1.6045372820
 C          1.4632099844       -0.5682527279       -0.7896202005
 H          0.5509903804       -0.0592790333       -0.5243556551
 N          2.0907105799        1.3833146505       -2.0377977365
 S          1.1558686905        2.4180182158       -1.1205478723
 O         -0.2252704056        2.0036469983       -1.1281632141
 O          1.4225729000        3.7226478796       -1.6885926557
 C          1.8519328053        2.3298253190        0.5188325959
 C          1.1634494246        1.7359746651        1.5553361395
 C          1.7705891799        1.6435048351        2.7982008742
 C          3.0479278142        2.1468858571        2.9840634523
 C          3.7238678395        2.7528159721        1.9349696486
 C          3.1240263289        2.8428766470        0.6903876481
 H          3.6126974759        3.3149183202       -0.1464341079
 H          4.7152241106        3.1495439921        2.0832318186
 H          3.5172524130        2.0681375566        3.9520105813
 H          1.2355492037        1.1647920388        3.6029612122
 H          0.1722319632        1.3439544598        1.3922961868
 H          2.8360501341        1.8577441288       -2.5237637407
 H          4.2554106830       -0.0741914640       -2.6254774796
 H          4.6624284384       -2.3777454854       -1.8465330930
 H          3.0349235697       -3.5183104166       -0.4060811204
 H          0.8459608317       -2.1756596288        1.5805593383
 C          0.6670629798       -4.0181685270        0.5091428082
 C          1.5434163286       -4.7882292353        1.4504072456
 C          0.0582409660       -4.7810646501        1.6465300562
 H         -0.4999337459       -5.6782316750        1.4251774891
 H         -0.3479525057       -4.2060983718        2.4659924167
 H          2.0064300688       -5.6967169294        1.0956521029
 H          2.1457652392       -4.2264405810        2.1482773068
 H          0.5183190218       -4.4087054153       -0.4910223148
