  62
        -98.94800621
 C         -1.2716001069       -1.0364039647       -0.0042957554
 C         -1.6244151199        0.0667703001        0.8085767567
 C         -2.6796734716        0.9424393640        0.2847566893
 C         -3.1935368907        0.6939839095       -0.9337124900
 C         -4.3028090944        1.4779312293       -1.5719893159
 C         -5.6751613690        0.8788385751       -1.2332397572
 C         -5.8797839523        0.6062644740        0.2569330374
 H         -6.8919851853        0.2151468976        0.3797242527
 H         -5.1899839518       -0.1796249500        0.5725707867
 C         -5.6934986057        1.8349721614        1.1579784831
 H         -6.5088053367        1.8644187547        1.8838402556
 H         -5.7579067614        2.7454690579        0.5611124363
 C         -4.3876339587        1.8441901536        1.9546497834
 H         -4.4549668707        2.6323761879        2.7092379147
 H         -4.2743713350        0.8938136701        2.4821523504
 C         -3.1118930208        2.0988595704        1.1415886882
 H         -3.2311524002        3.0008938828        0.5371710643
 H         -2.2938103701        2.2705237726        1.8477298646
 H         -5.7820695507       -0.0652484107       -1.7723770569
 H         -6.4470892755        1.5632229690       -1.5898342712
 H         -4.2503181937        2.5113900792       -1.2342062379
 H         -4.1610677171        1.4534586437       -2.6539490872
 O         -2.7860504539       -0.3393890357       -1.7138398433
 C         -1.8161148975       -1.2290192111       -1.2734867420
 O         -1.5343478985       -2.1262685055       -2.0904338650
 H          0.8314936473        0.2109460762       -0.6024025106
 C          1.4264638560       -0.6559123209       -0.8445878309
 C          1.0237240142       -1.9089243133       -0.4040544578
 C          1.7888625892       -3.0121704679       -0.7612290900
 C          2.9170325410       -2.8544681234       -1.5479773004
 C          3.3240390069       -1.6011419918       -1.9684170023
 C          2.5682808953       -0.4905512392       -1.6107930201
 N          2.9411068365        0.8051849477       -1.9995146172
 S          2.6933295912        2.0723642841       -0.9348291902
 O          1.3031343147        2.4539827950       -0.9186746120
 O          3.6190655606        3.0935660787       -1.3787878373
 C          3.2126319543        1.4386051798        0.6504885362
 C          2.2968361504        1.1578222811        1.6431057105
 C          2.7501448265        0.6129054555        2.8349707519
 C          4.1005209625        0.3601942577        3.0145586441
 C          5.0101059569        0.6569373522        2.0103652435
 C          4.5637220667        1.1982493474        0.8168109210
 H          5.2400831423        1.4528853126        0.0170627039
 H          6.0611783229        0.4649593918        2.1533894190
 H          4.4449450149       -0.0679157548        3.9426945508
 H          2.0344443628        0.3853641841        3.6090566802
 H          1.2475396540        1.3531397121        1.4844558973
 H          3.8332884116        0.8720103109       -2.4666530432
 H          4.2090321214       -1.4809254877       -2.5739806103
 H          3.4955815093       -3.7211091226       -1.8292943935
 H          1.4974535720       -3.9957795305       -0.4314860572
 C         -0.1970569958       -1.9911226358        0.4800085927
 H          0.0928421808       -1.6200613498        1.4755310391
 C         -0.7473664020       -3.3944090690        0.6256588606
 C         -0.2073718210       -4.3139541764        1.6789298441
 C         -1.5755427543       -3.7227247951        1.8308325696
 H         -2.4353676177       -4.3638683244        1.7071485226
 H         -1.7175440001       -2.9400858592        2.5620011324
 H          0.5787026946       -3.9381558469        2.3161121621
 H         -0.1293940414       -5.3666653692        1.4527145622
 H         -1.0530853020       -3.8208457429       -0.3229296329
 O         -1.0788007474        0.3075297454        1.9200766277
