  62
        -98.94600720
 C         -1.9939842814       -0.3200478828        0.5139534738
 C         -1.6767724629        0.8456192785        1.2554169165
 C         -1.8015574658        2.1231416650        0.5455974614
 C         -2.1444699600        2.1293313396       -0.7549059751
 C         -2.3214638574        3.3476881677       -1.6200207878
 C         -1.0083313101        3.8804220241       -2.2094091245
 C         -0.1059366202        4.6153524865       -1.2176686624
 H          0.6567089834        5.1336420691       -1.8023754808
 H         -0.6869106027        5.3738347062       -0.6910368790
 C          0.5918115707        3.6981957741       -0.2035998524
 H          0.5691064294        2.6696502972       -0.5744980882
 H          1.6454717459        3.9788181987       -0.1248437258
 C          0.0026235912        3.7512915786        1.2064066651
 H          0.5597607741        3.0554290596        1.8375559475
 H          0.1356881796        4.7548364268        1.6171815183
 C         -1.4848719968        3.3848468594        1.2925783374
 H         -2.0944376815        4.2057395346        0.9145373521
 H         -1.7348718315        3.2184633769        2.3436070225
 H         -0.4575819407        3.0435335929       -2.6472988589
 H         -1.2668762934        4.5702509870       -3.0165075084
 H         -2.8147862404        4.1368383843       -1.0512527360
 H         -2.9743075974        3.0509578612       -2.4438877097
 O         -2.3963593497        0.9894308657       -1.4468603748
 C         -2.2969634326       -0.2595789334       -0.8483126431
 O         -2.5178377359       -1.2046413103       -1.6289201238
 O         -1.3031732394        0.8205673747        2.4594475912
 C         -1.8294730399       -1.6659449964        1.2036237974
 C         -0.9540995172       -2.5356515899        0.3372073988
 C         -1.3194275950       -3.7727564026       -0.1727390446
 C         -0.4729706993       -4.4400964523       -1.0425559871
 C          0.7277627701       -3.8817623928       -1.4398402591
 C          1.1063975815       -2.6461490858       -0.9239673227
 C          0.2855143903       -2.0129325254       -0.0094424537
 H          0.5764763912       -1.0556742969        0.3921535755
 N          2.3103536671       -2.0371173661       -1.3018100468
 S          2.5043484170       -0.3740259074       -1.2762930786
 O          1.2717260116        0.3402946979       -1.5109357147
 O          3.5702058050       -0.1326781521       -2.2268818487
 C          3.1291240792       -0.0706291231        0.3638590405
 C          4.3853440787       -0.5601112458        0.6666560704
 C          4.8957921066       -0.3606669138        1.9385971205
 C          4.1445594601        0.3198226683        2.8856002515
 C          2.8875429211        0.8083393599        2.5663255473
 C          2.3739951184        0.6136481988        1.2935650886
 H          1.3966531382        0.9804560580        1.0189993897
 H          2.2946135201        1.3329239003        3.2990850359
 H          4.5390313678        0.4722400334        3.8777784890
 H          5.8742622019       -0.7372896811        2.1894285218
 H          4.9379053222       -1.0755658599       -0.1009985574
 H          2.7879861214       -2.4681567278       -2.0787478828
 H          1.3620568089       -4.3869650101       -2.1522752616
 H         -0.7682300203       -5.3987115426       -1.4420727674
 H         -2.2772659000       -4.1981570429        0.0781070000
 H         -1.2722999617       -1.4305863842        2.1264155838
 C         -3.1249640979       -2.3305866564        1.6388014230
 C         -4.3416168189       -1.5127208080        1.9509508554
 C         -4.3302220270       -2.4116468070        0.7527801490
 H         -4.9270636222       -3.3116235341        0.7842948533
 H         -4.2612221249       -1.9677030114       -0.2274936108
 H         -4.9455267366       -1.7922666154        2.8011308321
 H         -4.2805999138       -0.4462262753        1.7880898908
 H         -2.9421467859       -3.1826810032        2.2864719092
