  62
        -98.94003778
 C         -1.0245612103       -1.5958339914        0.0863729988
 C         -1.5451881902       -0.6137427819        0.9583614995
 C         -2.7961365604        0.0476502881        0.5475104301
 C         -3.3422925906       -0.2749611113       -0.6386344799
 C         -4.6001114808        0.2625936489       -1.2723742793
 C         -4.7734069510        1.7895124689       -1.2443547284
 C         -5.8951912608        2.2548089582       -0.3145598179
 H         -6.2381498110        3.2374328984       -0.6460471573
 H         -6.7361260708        1.5651475982       -0.4128461481
 C         -5.5074550705        2.3736796274        1.1580990021
 H         -6.4190804904        2.5804077870        1.7238105524
 H         -4.8430355706        3.2310992675        1.2868690624
 C         -4.8261297702        1.1422985472        1.7590680912
 H         -5.2981581002        0.2292297573        1.3988701508
 H         -4.9768180400        1.1745464965        2.8402468413
 C         -3.3127144603        1.0875186175        1.5044251308
 H         -2.9506249605        2.0669478978        1.1744062213
 H         -2.7914495500        0.8803173870        2.4446511106
 H         -3.8306591410        2.2636627589       -0.9715741284
 H         -5.0152005613        2.1175776295       -2.2567669282
 H         -4.5699101610       -0.0889819705       -2.3060935795
 H         -5.4619973306       -0.2175622914       -0.8028534894
 O         -2.7905751807       -1.2110154907       -1.4631577206
 C         -1.6193757205       -1.8761990907       -1.1421843912
 O         -1.2246458606       -2.6723819102       -2.0151408518
 H          0.6512131494        0.1528041592       -0.5506056306
 C          1.4240275194       -0.5247740105       -0.8782824112
 C          1.3768741996       -1.8573924607       -0.4933614319
 C          2.3667259796       -2.7140558504       -0.9587640426
 C          3.3635415494       -2.2405280697       -1.7949005526
 C          3.4155073191       -0.9073123495       -2.1601622918
 C          2.4331589291       -0.0411592599       -1.6941754211
 N          2.4415183189        1.3235031503       -2.0215255303
 S          1.9745471090        2.4346527795       -0.8591548596
 O          0.5393100390        2.4509537093       -0.7231133893
 O          2.5760405087        3.6774946799       -1.2958285290
 C          2.7683900194        1.8775067888        0.6385768599
 C          4.1436325894        2.0048100189        0.6987771797
 C          4.8161890997        1.5351020684        1.8139057192
 C          4.1055991100        0.9416845077        2.8467649191
 C          2.7267875900        0.8276724676        2.7743771793
 C          2.0462696497        1.2988707181        1.6616169697
 H          0.9733183397        1.2103037080        1.5887461199
 H          2.1648173203        0.3682176070        3.5720187792
 H          4.6276953803        0.5681072173        3.7134431787
 H          5.8884466597        1.6288306285        1.8737048690
 H          4.6578728092        2.4822652095       -0.1195317402
 H          3.2521949387        1.6343961407       -2.5362369503
 H          4.1991431389       -0.5403086191       -2.8048403418
 H          4.1194298494       -2.9191431594       -2.1596507032
 H          2.3532465498       -3.7531920305       -0.6738541032
 C          0.2770342699       -2.2848094414        0.4490602281
 H          0.5366361601       -1.9042188920        1.4492823282
 C          0.0978059201       -3.7857443315        0.5317935173
 C          0.9165602404       -4.5923669119        1.4938902266
 C         -0.5417560995       -4.3696474823        1.7549619371
 H         -1.2236674795       -5.1978787223        1.6343952768
 H         -0.8234878994       -3.6848195928        2.5415759575
 H          1.6263782205       -4.0641952522        2.1122947668
 H          1.2362836005       -5.5796488317        1.1964573560
 H         -0.1568984801       -4.2274995710       -0.4246029929
 O         -0.9840733200       -0.2973848425        2.0437237195
