  62
        -98.94738622
 C         -2.5645312344       -0.1353309039       -0.4012715605
 C         -2.1713107857       -0.7057810131        0.8335503191
 C         -1.7278313399       -2.1059936591        0.7799983719
 C         -1.7027539329       -2.7445722706       -0.4037537273
 C         -1.2482718745       -4.1606926498       -0.6091136698
 C          0.2460683861       -4.2326773741       -0.9484584685
 C          1.1409947505       -3.4492225245        0.0122371099
 H          2.1756017883       -3.6272267897       -0.2918263779
 H          0.9589352058       -2.3784636943       -0.1123472114
 C          0.9704398461       -3.8226839003        1.4913862510
 H          1.9605495945       -3.9056873806        1.9442147158
 H          0.4900236631       -4.7988445758        1.5757656155
 C          0.1912820561       -2.7940878827        2.3137171506
 H          0.3470109169       -3.0148457764        3.3735307545
 H          0.5942170680       -1.7973182959        2.1187802806
 C         -1.3233635317       -2.7555817646        2.0731596846
 H         -1.7352757017       -3.7653948830        2.1423436481
 H         -1.7696497621       -2.1456656074        2.8642740089
 H          0.3941221164       -3.8300214848       -1.9533909928
 H          0.5463550886       -5.2826307466       -0.9528309522
 H         -1.4544107959       -4.7343622831        0.2926113896
 H         -1.8190431801       -4.5843542539       -1.4376904592
 O         -2.0762869899       -2.1590390724       -1.5717310104
 C         -2.4971046814       -0.8402835246       -1.6012596470
 O         -2.7925358518       -0.4187568704       -2.7400310475
 H         -0.4128076566        1.0530136916       -0.9811674243
 C         -0.5948662394        1.9039273977       -0.3400974613
 C         -1.8949737702        2.2073325682        0.0412988025
 C         -2.1057062049        3.3170987925        0.8497593041
 C         -1.0341377463        4.0783990703        1.2843850792
 C          0.2624346346        3.7437579518        0.9394414748
 C          0.4817921020        2.6443941109        0.1172407987
 N          1.7820081572        2.2676803138       -0.2729388971
 S          2.0909528182        0.6027437496       -0.2960209427
 O          1.6409091697        0.0603276946       -1.5545692492
 O          1.5654974898       -0.0093116120        0.9010773769
 C          3.8736982143        0.5997714293       -0.2584095225
 C          4.5336043356        0.2518312116        0.9044251420
 C          5.9196512762        0.2798243643        0.9221753962
 C          6.6171129540        0.6561101383       -0.2155922159
 C          5.9402469419        1.0011742082       -1.3764116608
 C          4.5551262296        0.9732636517       -1.4016449162
 H          3.9856438226        1.2228917470       -2.2817520139
 H          6.4857345881        1.2902551678       -2.2601498798
 H          7.6952600104        0.6780533042       -0.1989388664
 H          6.4480668473        0.0081402065        1.8216900960
 H          3.9476300179       -0.0386070527        1.7616786960
 H          2.4958350271        2.7561836697        0.2522227129
 H          1.0974934818        4.3243854046        1.3012652173
 H         -1.2109351707        4.9351519942        1.9169137627
 H         -3.1075941100        3.5792044159        1.1483989275
 C         -3.0066646071        1.3159254823       -0.4590381410
 H         -3.1698744708        1.5407726927       -1.5242122206
 C         -4.3121268329        1.5045979430        0.2859215107
 C         -5.2942559262        2.5456431881       -0.1581490202
 C         -5.5885723038        1.0937595059       -0.3824398206
 H         -6.3542446137        0.6213198863        0.2141897598
 H         -5.5151522407        0.7033522750       -1.3874004770
 H         -5.8639974096        3.0708630340        0.5935269888
 H         -5.0328958807        3.1458330703       -1.0166167665
 H         -4.2154061213        1.3058606032        1.3470483142
 O         -2.2069277260       -0.0829101272        1.9275298282
