  62
        -98.93568109
 C         -1.6799609027       -0.2018111319        0.2716084826
 C         -2.7940262896       -0.9738891978        0.6826417595
 C         -4.1266905157       -0.3472695369        0.5873697030
 C         -4.2100212504        0.9266220481        0.1620372073
 C         -5.4447316293        1.7613210720       -0.0528811339
 C         -6.2054239107        1.3779818484       -1.3320975514
 C         -6.3754457462       -0.1226746118       -1.5531944349
 H         -6.8365484259       -0.2630366419       -2.5344759276
 H         -5.3911587266       -0.5930922505       -1.5887101729
 C         -7.2443127209       -0.8384657099       -0.5216397397
 H         -7.3604355306       -1.8719773828       -0.8579049499
 H         -8.2359196336       -0.3806904400       -0.5092269686
 C         -6.7012660507       -0.8642943239        0.9089544401
 H         -7.2787498989       -1.6106069296        1.4622796307
 H         -6.8661015387        0.0858875954        1.4099091275
 C         -5.2363385856       -1.2727278101        1.0255079986
 H         -5.0224152266       -1.5096476010        2.0746589654
 H         -5.0811614433       -2.2122628684        0.4828368688
 H         -5.6545279781        1.7801620448       -2.1860549870
 H         -7.1851760845        1.8581278542       -1.3071412618
 H         -5.1094110414        2.7968584339       -0.1448837242
 H         -6.0935264212        1.6998836092        0.8158632605
 O         -3.1056715681        1.6495072044       -0.1788073556
 C         -1.8234831946        1.1249275418       -0.1349643809
 O         -0.9378279630        1.9338579653       -0.4684431840
 O         -2.6862886442       -2.1524282958        1.1161071882
 C         -0.3104762150       -0.8514235163        0.3533067043
 C          0.6767028505        0.0727295403        1.0176250215
 C          0.5035496396        0.3833163336        2.3643675076
 C          1.3789707376        1.2324606097        3.0119191065
 C          2.4605713076        1.7718751502        2.3371350738
 C          2.6407819591        1.4701509678        0.9932019904
 C          1.7509859665        0.6267568740        0.3409706674
 H          1.8853557691        0.4496142126       -0.7121968487
 N          3.7260319243        1.9983724605        0.2825264652
 S          4.4501984873        1.1197817436       -0.9341410210
 O          5.7985322965        1.6441544415       -0.9992808846
 O          3.6901602535        1.2029740986       -2.1555544917
 C          4.4841028857       -0.5681138335       -0.3524365395
 C          5.0386133757       -0.8320820273        0.8844382859
 C          5.0611246642       -2.1386881126        1.3441465486
 C          4.5353198289       -3.1558620946        0.5622973419
 C          3.9913571741       -2.8767487031       -0.6815771246
 C          3.9633463408       -1.5706666814       -1.1444372955
 H          3.5432009402       -1.3078350385       -2.1023344137
 H          3.5851918895       -3.6691902136       -1.2901976714
 H          4.5500313938       -4.1722137850        0.9229198569
 H          5.4859726121       -2.3598012456        2.3099465569
 H          5.4465592726       -0.0222066878        1.4666916902
 H          4.3893070166        2.5270703628        0.8282456987
 H          3.1488287111        2.4332632004        2.8409125177
 H          1.2256964671        1.4715112324        4.0534880725
 H         -0.3386574959       -0.0420976263        2.8929954418
 H         -0.4627493014       -1.7179721655        1.0184498612
 C          0.1999286655       -1.4061692596       -0.9676842826
 C         -0.7433667247       -1.9246995271       -2.0100164354
 C          0.0399128870       -0.6732976129       -2.2644098190
 H          0.8525983827       -0.7028590864       -2.9763357091
 H         -0.4757885608        0.2742812448       -2.2447750405
 H         -0.4741109854       -2.8210434466       -2.5479381597
 H         -1.8022990553       -1.8315306683       -1.8174891491
 H          1.1245919362       -1.9603959034       -0.8361051931
