  62
        -98.94123277
 C         -2.7826097130       -0.3876459326       -0.2474467654
 C         -2.1119586013        0.5184057157       -1.1043432193
 C         -2.2434699946        1.9408635707       -0.7640831130
 C         -2.9584454206        2.3165596070        0.3104345548
 C         -3.1697076949        3.7271359605        0.7881296556
 C         -2.0205298754        4.2664816234        1.6513521766
 C         -0.7343868844        4.6005009006        0.8941103192
 H         -0.9699463069        5.2430294708        0.0450328165
 H         -0.1045185012        5.1762250654        1.5751205337
 C          0.0578990354        3.3770004590        0.4120469694
 H         -0.2617169119        2.4865386521        0.9600421800
 H          1.1168206509        3.5145829351        0.6451710300
 C         -0.0486139878        3.1028802642       -1.0883180142
 H          0.4987680999        2.1812116630       -1.3036440861
 H          0.4220584876        3.9165709437       -1.6449594972
 C         -1.4843263466        2.9280353446       -1.5992803057
 H         -1.9983147651        3.8884014638       -1.6142663525
 H         -1.4394466138        2.5367328251       -2.6186059810
 H         -1.8000459630        3.5376597747        2.4352213708
 H         -2.3779249691        5.1781201679        2.1359265300
 H         -4.0792270952        3.7179872604        1.3925172357
 H         -3.3261949275        4.3861835194       -0.0662384217
 O         -3.6023916366        1.4196313456        1.1029119222
 C         -3.5122355537        0.0608881912        0.8591752511
 O         -4.1296731859       -0.6444355796        1.6825673246
 O         -1.4250639380        0.1884366591       -2.1093042962
 C         -2.7106535965       -1.9013475687       -0.4006105575
 C         -1.4221382047       -2.3951314152        0.2139041263
 C         -1.4229670950       -3.2218483015        1.3306331430
 C         -0.2328303308       -3.5956932789        1.9317956301
 C          0.9793341536       -3.1436297742        1.4411628908
 C          0.9875517994       -2.3186322913        0.3245965346
 C         -0.2026111106       -1.9661559851       -0.2902984831
 H         -0.1870175076       -1.3131689740       -1.1506090299
 N          2.2170979053       -1.8057161827       -0.1600132927
 S          2.9248655884       -0.7340333308        0.9481830097
 O          3.5592675446       -1.5177674619        1.9786035297
 O          1.9478706417        0.2320901122        1.4007910685
 C          4.1598886180        0.0563074356       -0.0639287934
 C          3.8521411768        1.2545414730       -0.6791154676
 C          4.8002804062        1.8525765570       -1.4940834967
 C          6.0314452282        1.2421675697       -1.6812216742
 C          6.3249653395        0.0385716177       -1.0574109912
 C          5.3815697997       -0.5642957286       -0.2406901178
 H          5.5660232984       -1.4945790769        0.2702813098
 H          7.2841643691       -0.4308151742       -1.2047167178
 H          6.7671904603        1.7098633363       -2.3161737703
 H          4.5738846686        2.7888123090       -1.9784272990
 H          2.8840296303        1.6959008651       -0.4990647440
 H          2.0641052492       -1.3033659009       -1.0269612103
 H          1.9112226401       -3.3931942506        1.9222759923
 H         -0.2500685085       -4.2338428904        2.8025790479
 H         -2.3660133528       -3.5482254054        1.7450194038
 H         -3.5419886415       -2.3024373189        0.1942692571
 C         -2.8683891144       -2.3784359573       -1.8303308854
 C         -3.2971252782       -3.7923452546       -2.0774490549
 C         -4.2400617596       -2.6623769476       -2.3604706970
 H         -4.4557376152       -2.4121881939       -3.3882386440
 H         -5.0751618984       -2.5143184409       -1.6910434664
 H         -2.8643012868       -4.3227043305       -2.9115825243
 H         -3.4944485264       -4.4126288711       -1.2161785563
 H         -2.1538674476       -1.9404891383       -2.5139238875
