  62
        -98.93367146
 C          2.4388247121        0.9117341132       -0.0560589233
 C          3.6467675073        0.9992782100        0.6708560449
 C          4.8492881178        0.4190033178        0.0419203648
 C          4.7309523121       -0.1541771108       -1.1705006558
 C          5.7959001809       -0.8426996691       -1.9821785533
 C          6.1264148042       -2.2481947354       -1.4543782426
 C          6.2688772908       -2.3483777927        0.0621036083
 H          5.3435838320       -2.0095836999        0.5319492963
 H          6.3911984845       -3.4049754778        0.3149369069
 C          7.4504772782       -1.5860375242        0.6571250943
 H          8.3763864808       -1.9567098452        0.2117194785
 H          7.4804259556       -1.8172343040        1.7250644984
 C          7.4119563020       -0.0642520130        0.5021696134
 H          7.6947644460        0.2350600164       -0.5034080665
 H          8.1698516467        0.3499563356        1.1736058452
 C          6.0866446444        0.5830437140        0.8916297716
 H          5.8073860503        0.2502045238        1.8979550453
 H          6.2405712758        1.6653841359        0.9803509878
 H          5.3196547234       -2.9203250257       -1.7570373924
 H          7.0465217219       -2.5888049134       -1.9321985299
 H          5.4039134793       -0.9366628830       -2.9972563821
 H          6.6883399440       -0.2257482183       -2.0275686473
 O          3.5409297168       -0.2177634215       -1.8342136297
 C          2.3732816030        0.3021984849       -1.3080614876
 O          1.3723980220        0.1674652171       -2.0371878729
 O          3.7245813831        1.5351424339        1.8103627013
 C          1.1705879334        1.4846089176        0.5497798447
 C          0.1495048802        0.3868394947        0.7208357613
 C          0.5076725683       -0.7471486341        1.4461677993
 C         -0.3864918426       -1.7841273288        1.6255442177
 C         -1.6587832312       -1.7166976681        1.0844640487
 C         -2.0302253585       -0.5880412179        0.3682294738
 C         -1.1315354246        0.4601306030        0.1996158904
 H         -1.4351394729        1.3299508233       -0.3614550058
 N         -3.3122680932       -0.5159065074       -0.2027332621
 S         -4.6176978987       -1.0934736366        0.6975058049
 O         -4.5474619540       -0.5931653311        2.0524327676
 O         -4.6735634492       -2.5274276147        0.5599483554
 C         -5.9823408982       -0.3492103588       -0.1733581386
 C         -6.5472081246        0.8130049102        0.3165533069
 C         -7.5918375364        1.3967868118       -0.3828643171
 C         -8.0486741034        0.8134045059       -1.5550648075
 C         -7.4713100945       -0.3533258734       -2.0341389790
 C         -6.4274951847       -0.9430732710       -1.3392672771
 H         -5.9545979514       -1.8534592477       -1.6687977081
 H         -7.8308856609       -0.8046189866       -2.9447629938
 H         -8.8617647110        1.2694588514       -2.0974558609
 H         -8.0447034162        2.3020798800       -0.0117495353
 H         -6.1651857147        1.2265212843        1.2361466902
 H         -3.5070404150        0.3937574312       -0.5977013088
 H         -2.3662659447       -2.5198877854        1.2138452047
 H         -0.0926683442       -2.6568964444        2.1898302701
 H          1.5027377975       -0.8039923192        1.8668428401
 H          1.4597555690        1.8385530343        1.5504366800
 C          0.6809720220        2.6650020312       -0.2615822590
 C         -0.1641809371        3.7220110431        0.3829287498
 C          1.2568793027        4.0205498137        0.0130338730
 H          1.4467328357        4.6785649307       -0.8215945210
 H          1.9883240852        4.0972196920        0.8041361714
 H         -0.9497700812        4.1811019880       -0.1981833153
 H         -0.4014768545        3.6015596892        1.4292062447
 H          0.4828773510        2.4067838330       -1.2959280968
