  62
        -98.93432723
 C         -2.3833674805       -1.1876958855        0.1026514118
 C         -3.3026552097       -0.5532787081        0.9730545030
 C         -4.2044671161        0.4465622510        0.3741967556
 C         -4.0826604099        0.7299288075       -0.9340828457
 C         -4.8597531747        1.7412028067       -1.7309680488
 C         -4.1175904153        3.0876328133       -1.7762373675
 C         -4.4171744077        4.0285274088       -0.6098522182
 H         -3.7372241219        4.8793544280       -0.6952166105
 H         -5.4348252730        4.4116078964       -0.7098468196
 C         -4.2622844970        3.4136851073        0.7836716502
 H         -3.3548657519        2.8075784146        0.8198041332
 H         -4.1328335265        4.2295216767        1.4976931165
 C         -5.4722069183        2.5683731599        1.2090099428
 H         -6.2965897916        2.7543428762        0.5210050266
 H         -5.8122429097        2.8937725503        2.1944446006
 C         -5.2127636829        1.0582925138        1.3083871943
 H         -4.8416253485        0.8187513433        2.3101516394
 H         -6.1626408380        0.5250957756        1.1933414311
 H         -4.3827266892        3.6026197489       -2.7017184291
 H         -3.0454488841        2.8778861451       -1.8149161582
 H         -5.8631747663        1.8577508909       -1.3324867042
 H         -4.9279738080        1.3482394140       -2.7474962923
 O         -3.1470379418        0.1377880520       -1.7247967803
 C         -2.2736443379       -0.8246154529       -1.2404886208
 O         -1.4737599386       -1.2532603461       -2.0910014597
 O         -3.3614998563       -0.8046204736        2.2078221606
 C         -1.4543437746       -2.2308007328        0.6960928456
 C         -0.0298513011       -1.9715603115        0.2720248868
 C          0.7662573562       -2.9068862666       -0.3743048196
 C          2.0703653187       -2.5971776501       -0.7201844450
 C          2.6074893465       -1.3566537800       -0.4328928611
 C          1.8215956475       -0.4131658828        0.2164638426
 C          0.5197522929       -0.7297776594        0.5700033970
 H         -0.0923684813        0.0067740735        1.0781652167
 N          2.3561932966        0.8578471611        0.4980091812
 S          3.8086939546        0.9263924874        1.3392623622
 O          3.9642716184       -0.2109805317        2.2166648427
 O          3.8183658669        2.2288947152        1.9694084028
 C          5.0511326635        0.8887570273        0.0650869649
 C          4.9917824158        1.8422459907       -0.9323245460
 C          5.9577074119        1.8314226052       -1.9258274586
 C          6.9627914326        0.8757348740       -1.9029427749
 C          7.0107938664       -0.0719265670       -0.8920959591
 C          6.0464934532       -0.0679756317        0.1038327668
 H          6.0388303778       -0.7889596054        0.9055924118
 H          7.7930998805       -0.8136158393       -0.8759494643
 H          7.7131732396        0.8701491940       -2.6776720754
 H          5.9234501352        2.5666636731       -2.7136445072
 H          4.1964855039        2.5686544797       -0.9122899771
 H          1.6873393172        1.4976689812        0.9016508106
 H          3.6197126739       -1.1103692771       -0.7090278364
 H          2.6752719851       -3.3323381135       -1.2286383093
 H          0.3609480268       -3.8726247154       -0.6266188655
 H         -1.5130273488       -2.0579759873        1.7846238016
 C         -1.9016314699       -3.6669594580        0.4668808272
 C         -3.3443479749       -4.0018654856        0.2373476226
 C         -2.3523167701       -4.1633779594       -0.8731345796
 H         -2.0744254569       -5.1648225258       -1.1677641816
 H         -2.3680273746       -3.4564112332       -1.6873733320
 H         -3.7450438169       -4.8882368608        0.7058969301
 H         -4.0467127660       -3.1827260697        0.1813303403
 H         -1.3420167796       -4.3655308936        1.0816121791
