  62
        -98.93892975
 C          0.5540030934        1.6777602333        0.6937252960
 C          1.4115755270        1.7839929796       -0.4263403587
 C          2.6604114516        1.0071862066       -0.3582197247
 C          2.8891378983        0.2230968164        0.7108834945
 C          4.0890388406       -0.6613138042        0.9038772001
 C          3.9683864155       -1.9365211307        0.0465364069
 C          5.0112645183       -2.0551526386       -1.0649752298
 H          4.7004600706       -2.8725447699       -1.7187394227
 H          5.9713259229       -2.3324353345       -0.6246036112
 C          5.2299793618       -0.7977084217       -1.9106154660
 H          5.7758722350       -1.1047380987       -2.8052670204
 H          5.8785547419       -0.1029010072       -1.3748723498
 C          3.9595116381       -0.0520453012       -2.3385851395
 H          3.0997540683       -0.7221041077       -2.3415451372
 H          4.0970364968        0.2928080833       -3.3654711115
 C          3.6335528840        1.1906266011       -1.4901538409
 H          3.1681341046        1.9411701344       -2.1360942658
 H          4.5615782170        1.6219678079       -1.1037674899
 H          2.9662864904       -1.9634342847       -0.3848320864
 H          4.0634926158       -2.8129729076        0.6882534049
 H          4.1321983341       -0.9177100497        1.9624998682
 H          4.9906505776       -0.1102038857        0.6438542270
 O          2.0085099897        0.1008425765        1.7393091653
 C          0.8328234910        0.8321317722        1.7665224777
 O          0.1316288480        0.6447250049        2.7813700003
 O          1.1587730751        2.5024460213       -1.4285982628
 C         -0.7441188080        2.4652262480        0.7328339203
 C         -1.6412936994        2.0023982995       -0.3896182962
 C         -2.2127253635        2.8503626480       -1.3281263562
 C         -3.0152187945        2.3373043789       -2.3330225298
 C         -3.2802941264        0.9826344746       -2.4092872445
 C         -2.7207213069        0.1258144371       -1.4672973763
 C         -1.9030251208        0.6402738887       -0.4756924382
 H         -1.4647928037       -0.0253397741        0.2539931999
 N         -2.9548823851       -1.2568593099       -1.5133124004
 S         -3.1716257770       -2.1042517411       -0.0855145549
 O         -3.8794058512       -3.3020873048       -0.4879802714
 O         -3.8225784726       -1.2934892541        0.9168908633
 C         -1.5350427398       -2.5663594729        0.4361633819
 C         -1.1209949154       -2.2846031370        1.7221454984
 C          0.1364313484       -2.7012877386        2.1287925601
 C          0.9500565253       -3.3936144744        1.2470228366
 C          0.5218517392       -3.6653509859       -0.0441935794
 C         -0.7333641207       -3.2501890061       -0.4568526889
 H         -1.1055902431       -3.4477769064       -1.4484281097
 H          1.1624623724       -4.2009012962       -0.7267222999
 H          1.9246821907       -3.7222799178        1.5705755656
 H          0.4743307416       -2.4678926431        3.1256489226
 H         -1.7748119848       -1.7311700722        2.3780717584
 H         -3.6013682042       -1.5561101638       -2.2289220717
 H         -3.9120261570        0.5868200016       -3.1900245655
 H         -3.4469889574        3.0045279408       -3.0636358742
 H         -2.0243250941        3.9100402062       -1.2799822136
 H         -1.2339130448        2.1976506495        1.6810317039
 C         -0.4697643585        3.9537582407        0.7284375820
 C         -1.4630775188        4.9007014733        1.3295342397
 C         -0.1626541877        4.6366826763        2.0258337732
 H          0.5861357316        5.4144151814        2.0349660073
 H         -0.1735437759        4.0310144446        2.9206585361
 H         -1.6070701161        5.8636854433        0.8633707215
 H         -2.3608205217        4.4783832547        1.7557007266
 H          0.0812881024        4.2751616108       -0.1473851187
