  62
        -98.94570195
 C          2.5621525231        0.1291811661        0.0712570104
 C          2.4365229455        1.1934825493       -0.8510802003
 C          1.9132847940        2.4519532359       -0.3108087089
 C          1.5879140500        2.5327847470        0.9924137644
 C          1.0250260498        3.7407566721        1.6907108876
 C         -0.4944942511        3.8856752496        1.5277117517
 C         -0.9546913424        4.3760671011        0.1540631010
 H         -1.9994807197        4.6765830447        0.2542462139
 H         -0.3841178080        5.2618057727       -0.1286865182
 C         -0.8553170049        3.3193507245       -0.9547001371
 H         -0.7863321743        2.3246352992       -0.5072345703
 H         -1.7722056205        3.3250096106       -1.5500730064
 C          0.3092950301        3.5142569103       -1.9259707498
 H          0.1543987257        4.4282474760       -2.5049824211
 H          0.3106110749        2.6697472895       -2.6206990385
 C          1.6903691116        3.5885564010       -1.2628614743
 H          2.4484052128        3.5156291409       -2.0472646977
 H          1.8086816695        4.5423261010       -0.7486381954
 H         -0.9599197015        2.9190601900        1.7371575991
 H         -0.8386796138        4.5980597056        2.2812752117
 H          1.2491167294        3.6176018319        2.7524021404
 H          1.5219571494        4.6424118903        1.3309297626
 O          1.7558060878        1.4970026006        1.8557310531
 C          2.2056808164        0.2632830621        1.4135764538
 O          2.2629415049       -0.6111528698        2.3001526524
 O          2.7462188537        1.0942027366       -2.0713108632
 C          2.9894171677       -1.2364057415       -0.4308798791
 C          1.8866607405       -2.2427971216       -0.1979794899
 C          2.1266598129       -3.5828378847        0.0773253660
 C          1.0700218490       -4.4569978673        0.2721905792
 C         -0.2389531230       -4.0167094722        0.2177826125
 C         -0.4896942078       -2.6743903715       -0.0518632258
 C          0.5683463292       -1.8146241974       -0.2876065348
 H          0.3601205426       -0.7820721994       -0.5270975792
 N         -1.8039907312       -2.1783472066       -0.0416981622
 S         -2.1379199657       -0.5646159643       -0.3505564211
 O         -1.8357328217       -0.2237298796       -1.7247850567
 O         -1.5159589926        0.2399952852        0.6703981442
 C         -3.9040740743       -0.5821898679       -0.1125123511
 C         -4.3922336299       -0.5980280831        1.1803363585
 C         -5.7628978248       -0.6409976069        1.3791869188
 C         -6.6184482110       -0.6678750769        0.2875147038
 C         -6.1144173180       -0.6487243336       -1.0040740526
 C         -4.7440451528       -0.6065111283       -1.2092853173
 H         -4.3056557292       -0.5819107957       -2.1939642577
 H         -6.7817457240       -0.6662304203       -1.8505896793
 H         -7.6848860497       -0.7010147175        0.4450756607
 H         -6.1578729888       -0.6528899836        2.3822230245
 H         -3.6877428388       -0.5673806069        1.9956174992
 H         -2.5044928996       -2.8154129360       -0.3896195232
 H         -1.0598844766       -4.6947623756        0.3905227564
 H          1.2712626449       -5.4968361807        0.4807983357
 H          3.1409419906       -3.9420645787        0.1416691878
 H          3.1242450883       -1.1202052560       -1.5179568039
 C          4.3111514067       -1.6523957850        0.1821202562
 C          5.2909092945       -2.4711498827       -0.6030260323
 C          5.5725014376       -1.0254109608       -0.3293605600
 H          6.3463898447       -0.7717296438        0.3792429466
 H          5.4774043097       -0.3209990344       -1.1430205385
 H          5.8772481136       -3.2124460556       -0.0813236145
 H          5.0179781847       -2.7490464798       -1.6099960262
 H          4.2340538352       -1.8248482272        1.2497352606
