  62
        -98.94432094
 C         -2.6445175519       -1.0952840552        0.1836084446
 C         -2.7125478893       -0.2827966435       -0.9743316733
 C         -3.5274449890        0.9323488888       -0.8494864512
 C         -4.1653601090        1.1964435375        0.3053271473
 C         -5.0526368313        2.3815028598        0.5755451046
 C         -4.2933861354        3.6466375898        0.9987054148
 C         -3.5075097125        4.3372735098       -0.1167511411
 H         -4.1646597636        4.5084979189       -0.9697343895
 H         -3.2047314485        5.3150644107        0.2631089228
 C         -2.2552204385        3.5756416731       -0.5739670782
 H         -1.9888847044        2.8292340318        0.1784333467
 H         -1.4136369754        4.2680686436       -0.6476288809
 C         -2.3937629364        2.8828423789       -1.9298251813
 H         -1.4662087846        2.3418664561       -2.1346270427
 H         -2.5275119738        3.6331785768       -2.7119907420
 C         -3.5528060205        1.8805536461       -2.0099189333
 H         -4.5055516892        2.4075466447       -2.0531263043
 H         -3.4340206355        1.2916225267       -2.9224383003
 H         -5.0297040924        4.3538590740        1.3874109394
 H         -3.6161077121        3.3903103806        1.8170488303
 H         -5.6559179793        2.5958722028       -0.3068965543
 H         -5.7189100170        2.0914454231        1.3908686568
 O         -4.0853525486        0.3800704079        1.3910376095
 C         -3.3045261373       -0.7653810027        1.3659336029
 O         -3.2787161770       -1.3941215993        2.4448950982
 O         -2.1255929759       -0.5545553531       -2.0526677359
 C         -1.8081711367       -2.3608169683        0.1645630180
 C         -0.3760735587       -2.0419064599       -0.1941115112
 C          0.3816451854       -2.8215882922       -1.0580495810
 C          1.6965393256       -2.4877410415       -1.3337037154
 C          2.2840487227       -1.3768321735       -0.7578570919
 C          1.5407208034       -0.5978765146        0.1194734013
 C          0.2267929947       -0.9395493654        0.3993853736
 H         -0.3494383719       -0.3322295410        1.0882650748
 N          2.1268164456        0.5391797839        0.7045136495
 S          3.6018808740        0.3494092836        1.4858736943
 O          3.7497260255       -0.9855296917        2.0183434898
 O          3.6641004448        1.4329588984        2.4427355513
 C          4.8069156797        0.6350755583        0.2070218041
 C          4.7259177745        1.8105322166       -0.5136608669
 C          5.6641611616        2.0535631678       -1.5039877412
 C          6.6637680530        1.1245934592       -1.7526182492
 C          6.7333670812       -0.0489632366       -1.0177084006
 C          5.7967320781       -0.2992848488       -0.0267347900
 H          5.8067569310       -1.2004359956        0.5653514013
 H          7.5113935100       -0.7694877235       -1.2123165643
 H          7.3928508862        1.3168857973       -2.5238332731
 H          5.6125694960        2.9646592869       -2.0780925177
 H          3.9355610112        2.5068699743       -0.2877388155
 H          1.4911612521        1.0703371082        1.2817914575
 H          3.3047773918       -1.1089424589       -0.9767994041
 H          2.2708361023       -3.1000041604       -2.0120129007
 H         -0.0588048541       -3.6900616410       -1.5194184280
 H         -1.8196474594       -2.7510372051        1.1936123373
 C         -2.4442726345       -3.3863523413       -0.7517083244
 C         -2.3072735097       -4.8502441370       -0.4633206275
 C         -3.6227388606       -4.1646719776       -0.2517612555
 H         -4.4316708525       -4.3732180878       -0.9356360110
 H         -3.9465457924       -3.9746069805        0.7616329478
 H         -2.2165399249       -5.5337250203       -1.2940831581
 H         -1.7411490888       -5.1378693203        0.4099018301
 H         -2.4593852021       -3.0642851602       -1.7865208730
