  62
        -98.93173511
 C          2.0546999017        1.2520942581       -0.2295949253
 C          2.3348491216        0.4090447280        0.8762640553
 C          2.5286776428       -1.0184446390        0.5954302190
 C          2.3916261484       -1.4533077225       -0.6696694427
 C          2.5891064407       -2.8685650810       -1.1348453431
 C          4.0931637408       -3.1989099051       -1.2162252541
 C          4.5579802478       -4.2669712963       -0.2261056406
 H          5.6498842057       -4.2597005939       -0.2258610676
 H          4.2336731435       -5.2465491622       -0.5832756774
 C          4.0574862813       -4.1028582435        1.2118732598
 H          4.6624715139       -4.7628549763        1.8371059135
 H          3.0288295232       -4.4588035907        1.2853617551
 C          4.1244791165       -2.6816324531        1.7855614553
 H          4.8793847572       -2.0914860002        1.2658732985
 H          4.4366579511       -2.7508912668        2.8295386942
 C          2.7860802244       -1.9199914989        1.7710828745
 H          2.7500577645       -1.2564043346        2.6404779361
 H          1.9568960262       -2.6271917441        1.8676916372
 H          4.6534656222       -2.2765871500       -1.0500182806
 H          4.3362388304       -3.5371010698       -2.2245961069
 H          2.1246011210       -2.9514735758       -2.1179894078
 H          2.0798547932       -3.5471829666       -0.4537158956
 O          2.1282542499       -0.6201430814       -1.7072224914
 C          1.9238203901        0.7443984433       -1.5218743129
 O          1.6667073816        1.3513585850       -2.5778969831
 O          2.4195839981        0.8461962638        2.0571673289
 C          1.7436585859        2.6988374252        0.1172275686
 C          0.3595940857        2.7521102762        0.7186941632
 C          0.0811442653        3.5247983337        1.8395895228
 C         -1.1806389902        3.5083309584        2.4079685288
 C         -2.1758426924        2.6985496981        1.8914229855
 C         -1.9065187122        1.9232546382        0.7690590558
 C         -0.6555842404        1.9784237267        0.1754332246
 H         -0.4657657513        1.3743719833       -0.7004349134
 N         -2.8778406750        1.0720128243        0.2159945405
 S         -2.3353846626       -0.4148829529       -0.3873077086
 O         -1.2967033497       -0.9498245107        0.4635514687
 O         -2.0140350617       -0.2564760028       -1.7836121491
 C         -3.8223695157       -1.3877126510       -0.2259475388
 C         -3.9945959597       -2.1715445243        0.8993657473
 C         -5.1662211955       -2.8993455951        1.0369013297
 C         -6.1419037426       -2.8283918822        0.0538732780
 C         -5.9547826911       -2.0373683354       -1.0700704626
 C         -4.7851144742       -1.3080134459       -1.2144356511
 H         -4.5892618011       -0.6873497917       -2.0732908783
 H         -6.7138805285       -1.9869134476       -1.8337679154
 H         -7.0526290135       -3.3955663003        0.1632181058
 H         -5.3124144448       -3.5172974388        1.9080895134
 H         -3.2037181124       -2.2009264174        1.6318657169
 H         -3.6885430682        0.9602830423        0.8100730147
 H         -3.1498886450        2.6590368847        2.3547102178
 H         -1.3839656164        4.1117828869        3.2794875171
 H          0.8679248703        4.1180128937        2.2817726979
 H          2.4535006697        2.9724261667        0.9156484904
 C          1.9337778820        3.6856859518       -1.0216685850
 C          0.7912304033        4.2402447636       -1.8127723631
 C          1.5309156344        5.1211667066       -0.8537356586
 H          2.1801014035        5.8860010278       -1.2517575705
 H          1.0260065535        5.3964928594        0.0594213739
 H          0.9373367018        4.3751162873       -2.8733069157
 H         -0.2059526626        3.9187965377       -1.5529304516
 H          2.8489589548        3.4963195369       -1.5719834095
