  62
        -98.93927710
 C         -2.2913302296       -0.8420378505        0.6287487501
 C         -3.4407075298       -0.9435994406       -0.1934544897
 C         -4.5336190998       -0.0055205307        0.1083947306
 C         -4.3910973497        0.8847993092        1.1057085406
 C         -5.4019225997        1.9297813391        1.4779943109
 C         -5.1546820700        3.2415011992        0.7199555609
 C         -4.9695964003        3.0594045093       -0.7865579492
 H         -4.8348197005        4.0530114993       -1.2195517192
 H         -4.0464662803        2.5033208894       -0.9667829394
 C         -6.1352496804        2.3487736592       -1.4884902990
 H         -6.3725664806        2.8895364692       -2.4070307989
 H         -7.0229335802        2.3798443091       -0.8557508588
 C         -5.8464548703        0.9001373992       -1.8857479891
 H         -6.6402419804        0.5678232592       -2.5599518489
 H         -4.9052879604        0.8529030293       -2.4391273593
 C         -5.7770385899       -0.1064892408       -0.7306493792
 H         -6.6687353998       -0.0140611909       -0.1075771190
 H         -5.7632626699       -1.1098580508       -1.1657903492
 H         -4.2520665700        3.7082344993        1.1215006407
 H         -5.9958638900        3.9114565291        0.9071663611
 H         -6.4000101797        1.5547755990        1.2597612610
 H         -5.3204524195        2.1189453491        2.5496970208
 O         -3.2716593095        0.9598554893        1.8709689404
 C         -2.2066518395        0.1035731094        1.6558979001
 O         -1.2527892393        0.2728934595        2.4441145499
 H          1.5025781504       -0.9926650601        0.7016443093
 C          1.1575631802       -0.9512483001       -0.3206192306
 C         -0.1555946198       -1.2844762803       -0.6211575104
 C         -0.5824233801       -1.2071830102       -1.9426970703
 C          0.2886758497       -0.7928850701       -2.9333602304
 C          1.5958106197       -0.4563243000       -2.6298586507
 C          2.0365374100       -0.5426292900       -1.3138898108
 N          3.3777259100       -0.2634737999       -0.9982199611
 S          3.7779328603        0.4088703001        0.4958653589
 O          3.6691784906       -0.6093834200        1.5099060389
 O          3.0291051802        1.6268275300        0.7145553991
 C          5.4987522002        0.7782244003        0.2094574486
 C          5.8940911300        2.0808202603       -0.0269930715
 C          7.2344886499        2.3412793105       -0.2671780017
 C          8.1504757300        1.3003051806       -0.2699269020
 C          7.7384443402       -0.0025178795       -0.0306063819
 C          6.4006814703       -0.2694516596        0.2119834183
 H          6.0354331704       -1.2630681997        0.4123842984
 H          8.4537377103       -0.8090746294       -0.0312541921
 H          9.1925692299        1.5058026207       -0.4571356422
 H          7.5581783998        3.3532437005       -0.4500448618
 H          5.1472330699        2.8583064903       -0.0079659213
 H          3.8595517798        0.2155067902       -1.7474072711
 H          2.2732671295       -0.1338641199       -3.4060481108
 H         -0.0550407605       -0.7287084401       -3.9548304304
 H         -1.6024310401       -1.4660361703       -2.1810984301
 C         -1.0766288795       -1.7452125704        0.4838764298
 H         -0.5250575993       -1.6482604004        1.4297118597
 C         -1.4364006794       -3.2068953404        0.2916997398
 C         -0.4177012092       -4.2499608403        0.6340341796
 C         -1.6329730891       -4.0770569405        1.4942575298
 H         -2.4022987090       -4.8337748906        1.4620279399
 H         -1.5091375089       -3.6208881705        2.4662424698
 H          0.5313836808       -3.9114513703        1.0233147894
 H         -0.3500883393       -5.1280625103        0.0104844495
 H         -2.0760774496       -3.3837111004       -0.5624624901
 O         -3.5757316899       -1.7674731306       -1.1362647697
