  62
        -98.94547999
 C         -1.6531104827       -1.4471676781        0.2054623008
 C         -1.4806738664       -0.1526872891       -0.3432355716
 C         -2.4660498179        0.8512418426        0.0804440717
 C         -3.4154015986        0.5262864059        0.9759664678
 C         -4.4670702832        1.4502983806        1.5274781477
 C         -5.7101260586        1.5844546209        0.6372500582
 C         -5.5076793991        2.3954434923       -0.6432695606
 H         -6.4985604576        2.5919133462       -1.0577049147
 H         -5.0624520351        3.3593115128       -0.3949189802
 C         -4.6572596767        1.6918835530       -1.7101391345
 H         -4.6014103520        0.6242559283       -1.4852964205
 H         -5.1431868233        1.7878114829       -2.6838467962
 C         -3.2384842219        2.2424935617       -1.8551136727
 H         -3.2821355100        3.2749425033       -2.2087878975
 H         -2.7179754455        1.6492741129       -2.6111815442
 C         -2.4076639861        2.2021828095       -0.5655107171
 H         -1.3642761872        2.3952496065       -0.8231731664
 H         -2.7515710324        2.9706923738        0.1259812859
 H         -6.0676990006        0.5839886834        0.3826166362
 H         -6.4859838975        2.0722002439        1.2320096191
 H         -4.7757643079        1.0316640943        2.4877730145
 H         -4.0350347022        2.4361234242        1.7007868847
 O         -3.5157402375       -0.7174736205        1.5169424039
 C         -2.6567583466       -1.7328302216        1.1337751319
 O         -2.8800751346       -2.8291916634        1.6858872909
 O         -0.5639654166        0.1588209637       -1.1466273735
 C         -0.7158422727       -2.5849462296       -0.1678172876
 C          0.6588677048       -2.2410959465        0.3491600155
 C          0.9267190470       -2.3952875006        1.7065340838
 C          2.1505856441       -2.0252483189        2.2314730771
 C          3.1273766924       -1.4775180752        1.4173546276
 C          2.8621494868       -1.3038925784        0.0659009362
 C          1.6416139292       -1.7011003818       -0.4645162966
 H          1.4505933958       -1.5564079215       -1.5154541732
 N          3.8376627854       -0.7259511637       -0.7704572159
 S          4.4702283643        0.7596807784       -0.3290423538
 O          5.1288287962        1.2561920561       -1.5160086545
 O          5.3045177620        0.5887065277        0.8342934651
 C          3.0715419013        1.7897024584        0.0726435510
 C          2.6052490643        1.8274635384        1.3709947974
 C          1.4949718085        2.6040434415        1.6595980056
 C          0.8779184179        3.3294888372        0.6530560768
 C          1.3594173974        3.2814884850       -0.6459065525
 C          2.4621586460        2.4986517867       -0.9426742973
 H          2.8688922585        2.4379050940       -1.9393462150
 H          0.8767212460        3.8461995987       -1.4277550554
 H          0.0162482521        3.9362822922        0.8834452127
 H          1.1139097313        2.6394778706        2.6678144545
 H          3.1182756807        1.2611492010        2.1306163538
 H          3.5530367114       -0.6932711442       -1.7393899348
 H          4.0840865428       -1.1733009301        1.8103133812
 H          2.3470633073       -2.1604191216        3.2844527479
 H          0.1553000608       -2.8023865711        2.3459935241
 H         -1.0768807918       -3.4668700019        0.3776063571
 C         -0.7625261526       -2.8770534197       -1.6529125451
 C         -0.1957877832       -4.1651727837       -2.1673585130
 C         -1.6786287958       -3.9485347415       -2.1589111662
 H         -2.1830484131       -3.7926992928       -3.1008706516
 H         -2.2708162678       -4.4845102525       -1.4314821310
 H          0.3187539835       -4.1625591430       -3.1162297278
 H          0.2207338603       -4.8494610855       -1.4436937878
 H         -0.6539727152       -1.9923775477       -2.2682043272
