  62
        -98.94671960
 C         -1.9903749697       -1.4543290800       -0.0853684807
 C         -1.7178843648       -0.2174418591       -0.7153827876
 C         -2.8722933162        0.6713730218       -0.9076913592
 C         -4.0934508720        0.2581861733       -0.5222927757
 C         -5.3445373829        1.0821905406       -0.6123324653
 C         -5.5776945009        1.8816931013        0.6775506644
 C         -4.3474915322        2.6500709397        1.1606878510
 H         -4.6396656556        3.1975752320        2.0593927796
 H         -3.5750272029        1.9364159980        1.4563412970
 C         -3.7647398218        3.6295775803        0.1323578848
 H         -3.5418483692        4.5727297190        0.6355191083
 H         -4.5061116768        3.8414871165       -0.6388949430
 C         -2.4672977766        3.1585392734       -0.5275392712
 H         -2.0304585781        4.0080936669       -1.0595744139
 H         -1.7577947348        2.8490024003        0.2445007245
 C         -2.6129901276        2.0116878624       -1.5359747388
 H         -3.3908354442        2.2557923997       -2.2622342663
 H         -1.6636695621        1.9120121181       -2.0708711923
 H         -5.8783183313        1.1870421221        1.4653789686
 H         -6.4007812368        2.5781318315        0.5074401321
 H         -5.2680213047        1.7574524474       -1.4623443016
 H         -6.1891601432        0.4093402552       -0.7698609646
 O         -4.3212237017       -0.9541489423        0.0456598289
 C         -3.2780469376       -1.8308208874        0.2960066384
 O         -3.6185038773       -2.8929702634        0.8548450032
 H          1.8695609575       -2.1248527036       -0.2770334023
 C          1.5348749254       -1.6808254410        0.6449073977
 C          0.2029856817       -1.7397281070        1.0218970556
 C         -0.1768504704       -1.1467679002        2.2244424522
 C          0.7492373346       -0.5021112208        3.0203019722
 C          2.0751576060       -0.4259676971        2.6289367254
 C          2.4660365418       -1.0177722529        1.4349704038
 N          3.8109964702       -0.9776539466        1.0203955540
 S          4.2027077360       -0.3210898972       -0.4704306077
 O          3.5570205755       -1.0638914536       -1.5202652080
 O          5.6498429035       -0.3103905893       -0.4925942080
 C          3.6023082160        1.3574319006       -0.3987878056
 C          4.4999195175        2.3602872206       -0.0840144968
 C          4.0412943787        3.6618809323        0.0328968347
 C          2.6950905155        3.9369177255       -0.1566897164
 C          1.8083848722        2.9180359703       -0.4666904356
 C          2.2592496438        1.6122523986       -0.5897016914
 H          1.5771387270        0.8123419084       -0.8308067533
 H          0.7594257812        3.1203239708       -0.6152158873
 H          2.3345675070        4.9493358729       -0.0635796781
 H          4.7311985201        4.4551032845        0.2723483939
 H          5.5375863543        2.0999793677        0.0500485609
 H          4.4378297152       -0.6012040802        1.7182189790
 H          2.8008551407        0.0833320028        3.2449693943
 H          0.4374446724       -0.0484813338        3.9490100645
 H         -1.2152202654       -1.2001577106        2.5240426966
 C         -0.8545610736       -2.4237692092        0.1899681634
 H         -1.2871357541       -3.2392767502        0.7879318485
 C         -0.3291062800       -3.0010841323       -1.1073533313
 C          0.3169209725       -4.3526836409       -1.1195287312
 C         -1.0410071222       -4.1650322745       -1.7251896388
 H         -1.1371931377       -4.1995789260       -2.8001018782
 H         -1.8974416410       -4.5589800166       -1.1970247380
 H          0.3844123283       -4.8829730044       -0.1814877668
 H          1.1572002492       -4.5142967895       -1.7781386481
 H          0.0640194637       -2.2451188956       -1.7781655357
 O         -0.5701471509        0.1318848704       -1.0943377457
