  62
        -98.94473161
 C         -1.8155597270       -0.4990431308       -0.5238801071
 C         -2.8548714399       -1.2972625514        0.0114891762
 C         -4.2194303747       -0.8176139460       -0.2326721908
 C         -4.4136405115        0.3053929216       -0.9480260152
 C         -5.7461297071        0.9063364438       -1.3055171119
 C         -6.3431040835        1.7995898157       -0.2093664550
 C         -6.8799295464        1.0561191952        1.0143841224
 H         -7.4586977847        1.7752321857        1.5974758061
 H         -7.5660780278        0.2731777435        0.6899338671
 C         -5.7933320751        0.4513302189        1.9143412914
 H         -4.8307584932        0.9130599110        1.6821927673
 H         -6.0153157353        0.6824686242        2.9586303172
 C         -5.6536642949       -1.0671761073        1.8060563250
 H         -6.5695397906       -1.5453986510        2.1601577443
 H         -4.8352116529       -1.3835612381        2.4576287965
 C         -5.3541464925       -1.5745510257        0.3892155463
 H         -5.0563327909       -2.6237313825        0.4563050942
 H         -6.2462086441       -1.5031176588       -0.2325397777
 H         -5.5844465172        2.5201997192        0.1048445599
 H         -7.1669301866        2.3593771202       -0.6582103807
 H         -5.5818810716        1.5172980087       -2.1957712801
 H         -6.4513670471        0.1127595668       -1.5541040291
 O         -3.3873357227        1.0353411313       -1.4611156020
 C         -2.0661289968        0.6673033729       -1.2464842812
 O         -1.2308023701        1.4442698128       -1.7469367906
 O         -2.6510301972       -2.3571677313        0.6615392944
 C         -0.3755106741       -0.9281814154       -0.3043583882
 C          0.3785881908        0.1550864289        0.4241633504
 C         -0.1534596508        0.6480812193        1.6142827371
 C          0.4799427564        1.6593577514        2.3078127222
 C          1.6678023294        2.1926642821        1.8378604136
 C          2.2135563080        1.7010079501        0.6590237981
 C          1.5745646055        0.6814380924       -0.0365989914
 H          2.0112660309        0.3338714426       -0.9575843257
 N          3.4139703529        2.2251963346        0.1626620698
 S          4.5032162038        1.2630645760       -0.6500336306
 O          5.7664928381        1.9563966970       -0.5085461250
 O          4.0701748734        1.0264813472       -2.0041318785
 C          4.5587698265       -0.2792713165        0.2477261683
 C          4.5470762981       -1.4648586683       -0.4571829130
 C          4.6061893009       -2.6627301282        0.2372225100
 C          4.6741383433       -2.6538502586        1.6213932036
 C          4.6911832655       -1.4542011515        2.3163270967
 C          4.6369595972       -0.2541424075        1.6263388147
 H          4.6549148398        0.6905510975        2.1443424829
 H          4.7455404010       -1.4503026826        3.3930241638
 H          4.7147818356       -3.5867164977        2.1612550529
 H          4.5954178946       -3.5953431547       -0.3039515518
 H          4.4861305340       -1.4253419951       -1.5326230585
 H          3.8670009095        2.9082347499        0.7506930641
 H          2.1607224801        2.9907665392        2.3716607852
 H          0.0494094956        2.0365311316        3.2231365386
 H         -1.0819950070        0.2314839797        1.9801752717
 H         -0.4323193193       -1.8089426848        0.3526199137
 C          0.2538258209       -1.3422362026       -1.6167784381
 C          1.3541757790       -2.3586868929       -1.6392591582
 C         -0.0108697845       -2.7214414611       -2.1395527486
 H         -0.1562053047       -2.8513917788       -3.2015307344
 H         -0.6241800586       -3.3707927186       -1.5320688072
 H          2.1472420178       -2.2357716062       -2.3611032048
 H          1.6754216762       -2.7677252756       -0.6934718996
 H          0.2901809012       -0.5329694833       -2.3382397066
