  62
        -98.93793363
 C         -1.6394565189       -1.6587691971        0.1374478133
 C         -1.5140651834       -0.3207929270       -0.3076908560
 C         -2.6008901109        0.5880515330        0.0880492805
 C         -3.6145551967        0.1298417028        0.8437141609
 C         -4.7732502197        0.9291428172        1.3794911897
 C         -5.7423831300        1.5128059855        0.3333572983
 C         -5.4245386881        2.9525810887       -0.0890900834
 H         -6.3615689619        3.5049913088       -0.1847360087
 H         -4.8575304051        3.4348801434        0.7079534405
 C         -4.6765430330        3.1086865811       -1.4165688215
 H         -4.2997322595        4.1323784851       -1.4695221819
 H         -5.3816395436        2.9759718987       -2.2404240534
 C         -3.5159881241        2.1402104767       -1.6459676920
 H         -2.9565670913        2.4813223624       -2.5192218541
 H         -3.9073899187        1.1518400801       -1.8981528836
 C         -2.5577735513        1.9889284878       -0.4485612760
 H         -1.5290014354        2.1601212339       -0.7698084038
 H         -2.8034693761        2.7062678834        0.3327069009
 H         -6.7364670179        1.5016502266        0.7832878267
 H         -5.7760538165        0.8579182594       -0.5369249707
 H         -4.3831955454        1.7374893212        2.0021121612
 H         -5.3218614496        0.2440721577        2.0291690838
 O         -3.6852819883       -1.1633810554        1.2652233511
 C         -2.7108020520       -2.0843134535        0.9236091096
 O         -2.9040088270       -3.2309448750        1.3763773529
 O         -0.5507142070        0.1013169578       -0.9978070732
 C         -0.5722301630       -2.6848307999       -0.2065183325
 C          0.7338827796       -2.2139995917        0.3832231209
 C          0.8718227445       -2.1985870777        1.7687942026
 C          2.0222108972       -1.7121981358        2.3594679034
 C          3.0549441535       -1.2169165505        1.5816382029
 C          2.9215333493       -1.2179939392        0.2002821946
 C          1.7733866740       -1.7284742223       -0.3921577447
 H          1.6862298795       -1.7188242490       -1.4667109221
 N          3.9561197479       -0.6986567450       -0.6011469022
 S          4.5289186132        0.8341357463       -0.2452954680
 O          5.2218949840        1.2611414647       -1.4401755274
 O          5.3216932105        0.7753337203        0.9577143041
 C          3.0852999012        1.8444679545        0.0247059450
 C          2.6516821234        2.0888883854        1.3115367621
 C          1.5082915234        2.8484186415        1.4980368736
 C          0.8247531057        3.3496166400        0.4018293288
 C          1.2734565680        3.0946151647       -0.8844623621
 C          2.4111273693        2.3299243325       -1.0774616181
 H          2.7937477470        2.1165548357       -2.0626505673
 H          0.7383273923        3.4835621817       -1.7360304955
 H         -0.0635995257        3.9432229379        0.5509776114
 H          1.1536128876        3.0457524586        2.4971065363
 H          3.2166261262        1.6924694924        2.1390270013
 H          3.7632298958       -0.7689657870       -1.5902412762
 H          3.9564904767       -0.8251219764        2.0238898205
 H          2.1162547732       -1.7128302774        3.4349595457
 H          0.0557825581       -2.5668945158        2.3759779905
 H         -0.8662569662       -3.6133860899        0.3011973799
 C         -0.5274050950       -2.9371153808       -1.6985572435
 C          0.1232686196       -4.1810511057       -2.2225232036
 C         -1.3671758289       -4.0341906324       -2.2771007940
 H         -1.8354725928       -3.8733549983       -3.2366746849
 H         -1.9663208257       -4.6169302347       -1.5926142593
 H          0.6780847472       -4.1258238005       -3.1469154737
 H          0.5388729847       -4.8677805600       -1.5007284668
 H         -0.4347833096       -2.0277079146       -2.2803858831
