  62
        -98.94430494
 C         -1.9806829910       -0.9915248527       -0.0314882778
 C         -2.5734602717       -0.3216680925        1.0721542502
 C         -3.2039680359        0.9735828673        0.7947784913
 C         -3.1672080456        1.4633252245       -0.4575030472
 C         -3.7996924009        2.7517181606       -0.8956153292
 C         -5.2391048636        2.5306247925       -1.3812938147
 C         -6.0953380316        1.7080443949       -0.4184317410
 H         -7.0967766053        1.6428774979       -0.8490242071
 H         -5.6987503962        0.6913890483       -0.3702900698
 C         -6.1849058607        2.2841321844        1.0015834882
 H         -5.8850098736        3.3325990929        0.9954759313
 H         -7.2256569802        2.2461140984        1.3297563133
 C         -5.3606815774        1.5279715237        2.0451419757
 H         -5.5895395575        0.4609115964        1.9896088019
 H         -5.6636630260        1.8771146099        3.0357147417
 C         -3.8395761807        1.6998611172        1.9469922535
 H         -3.5898139788        2.7624709047        1.9140309508
 H         -3.3967723894        1.2710294095        2.8506146988
 H         -5.7019039187        3.5060349539       -1.5417580685
 H         -5.2038210189        2.0090677714       -2.3405951332
 H         -3.7884983475        3.4544229319       -0.0644779447
 H         -3.2058776962        3.1635338744       -1.7137112861
 O         -2.5799114530        0.8050570696       -1.4866445750
 C         -1.9655623374       -0.4252512095       -1.3059559680
 O         -1.4667375512       -0.8824629110       -2.3560217775
 H          0.5214889810       -1.4231443504       -1.5152919624
 C          0.9639099287       -1.5972159591       -0.5452817228
 C          0.1746792633       -2.0780656709        0.4903849225
 C          0.7602532845       -2.2686513921        1.7363633825
 C          2.0992366907       -1.9820694563        1.9389104787
 C          2.8757620655       -1.4818639457        0.9084306435
 C          2.2958432744       -1.2813833163       -0.3367222177
 N          3.0697871980       -0.6992594178       -1.3750302103
 S          3.1896197782        0.9767263067       -1.1994768149
 O          1.9758794645        1.5389226892       -0.6464533699
 O          3.5979407211        1.4791401861       -2.4933938693
 C          4.5264270245        1.1640097284       -0.0398364033
 C          5.8081674215        0.8690414177       -0.4623057675
 C          6.8536094594        0.9913174087        0.4390581427
 C          6.6004340750        1.4029546612        1.7392970064
 C          5.3080643142        1.6973441733        2.1467522764
 C          4.2577051527        1.5773507788        1.2501277133
 H          3.2358781681        1.7905716440        1.5211290752
 H          5.1124950196        2.0171626974        3.1576211297
 H          7.4151230093        1.4960803505        2.4399290152
 H          7.8600584276        0.7649330672        0.1260249634
 H          5.9574408442        0.5589329667       -1.4830104128
 H          2.6723356850       -0.8819925410       -2.2878628271
 H          3.9163542907       -1.2449087411        1.0588793888
 H          2.5398069622       -2.1385096778        2.9114856582
 H          0.1501519008       -2.6228010507        2.5543828430
 C         -1.3003262714       -2.3176628586        0.2739162519
 H         -1.7294500879       -2.6486770811        1.2292071255
 C         -1.5463940366       -3.3952337661       -0.7620221806
 C         -1.3537948166       -4.8295832234       -0.3733277934
 C         -2.7336475476       -4.2968009716       -0.6136915483
 H         -3.2605155066       -4.6028930430       -1.5049264804
 H         -3.3761975381       -4.1401877971        0.2404598983
 H         -0.9300966569       -5.5061979246       -1.0992809291
 H         -1.0614901363       -5.0361111985        0.6449728906
 H         -1.2696234807       -3.1026407342       -1.7663008153
 O         -2.5749933896       -0.7940190715        2.2401353186
