  62
        -98.93721539
 C         -1.1965295100       -1.3220032695        0.5825378702
 C         -2.0586613900       -0.9961312296       -0.4895386899
 C         -3.2274465799       -0.1471065295       -0.1715379100
 C         -3.3694426998        0.3254144408        1.0798776499
 C         -4.4448403397        1.2272067810        1.6261327498
 C         -4.2638107796        2.6916487709        1.1987119095
 C         -3.9365173196        2.8922571606       -0.2784792205
 H         -3.7465405095        3.9579111905       -0.4333653107
 H         -3.0089186896        2.3662899905       -0.5143738705
 C         -5.0324278597        2.4646044205       -1.2522763804
 H         -5.9492607296        3.0112229106       -1.0206673305
 H         -4.7097089297        2.7658933703       -2.2521147405
 C         -5.3512663898        0.9679382705       -1.2892745401
 H         -5.9813419698        0.6776626407       -0.4527175501
 H         -5.9348452898        0.7830776104       -2.1957943301
 C         -4.1282010799        0.0599561004       -1.3654537900
 H         -4.4573824500       -0.9434861096       -1.6617885398
 H         -3.4773193199        0.4002723802       -2.1791760501
 H         -3.4409545395        3.1156990609        1.7801892394
 H         -5.1736684595        3.2394282010        1.4507767594
 H         -5.4251604597        0.8593864110        1.3380442899
 H         -4.3748543097        1.1729494512        2.7149983898
 O         -2.4637242198        0.0533925609        2.0639046700
 C         -1.3637646099       -0.7505879692        1.8450154701
 O         -0.6133279998       -0.8786459991        2.8346413801
 H          0.7420680302        0.3199167202       -0.0320984702
 C          1.1341496001       -0.3192653500       -0.8090636901
 C          0.8326570700       -1.6748660400       -0.7923636198
 C          1.3069172199       -2.4712160402       -1.8257691397
 C          2.0587383299       -1.9131847605       -2.8458869798
 C          2.3765374300       -0.5672018605       -2.8451580801
 C          1.9035885001        0.2384232298       -1.8152922002
 N          2.2028393202        1.6090380497       -1.7602169805
 S          2.4748667704        2.3142455900       -0.2686527706
 O          1.2268202604        2.5541124502        0.4126249994
 O          3.2623811005        3.4914480899       -0.5687783209
 C          3.4726219203        1.1296895101        0.6182087896
 C          4.7518897102        0.9021062799        0.1475492796
 C          5.5405744302       -0.0481319501        0.7739440597
 C          5.0372720001       -0.7572674798        1.8543355699
 C          3.7551808302       -0.5122556996        2.3198914299
 C          2.9620439502        0.4404325503        1.6988270697
 H          1.9588898903        0.6451184405        2.0406884197
 H          3.3571092101       -1.0597119294        3.1596834800
 H          5.6467431601       -1.5035168898        2.3389205300
 H          6.5404533901       -0.2359499303        0.4176223197
 H          5.1107658603        1.4807728297       -0.6880123906
 H          2.8543797703        1.9339422295       -2.4591779306
 H          2.9711850700       -0.1387238907       -3.6371057902
 H          2.4112624798       -2.5397394006       -3.6509785497
 H          1.0705024098       -3.5221558802       -1.8465366095
 C          0.0372845100       -2.1846027597        0.3846697603
 H          0.6473797000       -2.0023441695        1.2859493502
 C         -0.2295405202       -3.6817880896        0.3450365406
 C         -1.4678319102       -4.2644477194        0.9571255107
 C         -1.2824048503       -4.2916755297       -0.5289092993
 H         -1.0694408404       -5.2410229598       -0.9985842891
 H         -1.8724322302       -3.6242126798       -1.1356929494
 H         -1.3818070603       -5.1898521593        1.5068749909
 H         -2.1927589101       -3.5770317193        1.3695606706
 H          0.6819730698       -4.2562005697        0.4785705207
 O         -1.8812584100       -1.3882044899       -1.6722054298
