  62
        -98.93978182
 C         -1.7362432814       -1.3041463894        0.5054731891
 C         -1.5454503010       -0.2361720687       -0.4071391500
 C         -2.7642037709        0.2808884522       -1.0535086795
 C         -3.9563164710       -0.2684931877       -0.7631292200
 C         -5.2742445709        0.1935721532       -1.3121510795
 C         -5.9186592005        1.2439973927       -0.3969602887
 C         -4.9713580602        2.3725299920        0.0108917422
 H         -5.5416911199        3.0682839917        0.6302211728
 H         -4.1754905103        1.9638161413        0.6381417219
 C         -4.3453345599        3.1326699228       -1.1667394171
 H         -4.3963270996        4.2035754226       -0.9588629463
 H         -4.9228158600        2.9510756237       -2.0740104973
 C         -2.8747172901        2.8011198425       -1.4284767475
 H         -2.3036574500        2.8955844616       -0.5006337974
 H         -2.4784822798        3.5422736830       -2.1281618569
 C         -2.5975984405        1.4154220129       -2.0248800186
 H         -3.2209682806        1.2637552139       -2.9086245487
 H         -1.5485527205        1.3964003028       -2.3350926186
 H         -6.7863681104        1.6631751534       -0.9095010483
 H         -6.2675843307        0.7458866721        0.5105320709
 H         -5.1227724708        0.6072353540       -2.3071926492
 H         -5.9386590712       -0.6691976365       -1.3837569702
 O         -4.1009838014       -1.2911291083        0.1173169492
 C         -3.0074992015       -1.8130002392        0.7881490188
 O         -3.2931061018       -2.7155799598        1.6001633280
 H          1.9095479988       -0.9238923007        0.6159705394
 C          1.4865714590       -0.4513825713        1.4870962298
 C          0.2311346388       -0.8269946213        1.9409557195
 C         -0.3025422509       -0.1778838420        3.0510866200
 C          0.4077273594        0.8110831772        3.7032112308
 C          1.6634344395        1.1767768772        3.2520203411
 C          2.1988150993        0.5499389279        2.1343106006
 N          3.4804406694        0.8994365179        1.6583045508
 S          3.5698261996        1.6309656391        0.1417537814
 O          4.8416149898        2.3277119987        0.1639976119
 O          2.4117830799        2.4545312497       -0.1138451479
 C          3.6871329191        0.2896625200       -1.0189331097
 C          2.6277312490        0.0013502111       -1.8546849199
 C          2.7750617387       -1.0174305582       -2.7842234607
 C          3.9631942684       -1.7282946285       -2.8534568614
 C          5.0131630085       -1.4311918496       -1.9969647311
 C          4.8783307389       -0.4083199603       -1.0729725603
 H          5.6736585390       -0.1292516311       -0.4019909301
 H          5.9339624684       -1.9893521999       -2.0513927616
 H          4.0694185281       -2.5195668980       -3.5791614120
 H          1.9567401686       -1.2524618974       -3.4464263509
 H          1.7075334092        0.5534708913       -1.7474547294
 H          4.0021668896        1.4685419372        2.3119557313
 H          2.2245119598        1.9499083566        3.7564538117
 H         -0.0173963904        1.3020264367        4.5659173512
 H         -1.2869208510       -0.4632407120        3.3979308698
 C         -0.5845456815       -1.9148042505        1.2876286186
 H         -1.0708625517       -2.4880017710        2.0939913881
 C          0.2612856581       -2.9102653901        0.5085122878
 C         -0.3962308422       -3.9048801991       -0.4007955530
 C          0.4779621381       -2.8303822989       -0.9703062122
 H          1.4480425980       -3.1086652989       -1.3549901524
 H          0.0137668884       -2.0175931784       -1.5045695715
 H         -1.4652002022       -3.8212702787       -0.5346625929
 H         -0.0340156726       -4.9217050992       -0.4014079839
 H          1.0930397380       -3.2771134808        1.1022526174
 O         -0.4271797209        0.2642375911       -0.6874857296
