  62
        -98.94472328
 C          2.0043776156        1.3665651714        0.3101515061
 C          2.6552129104        0.7718351007       -0.7978599840
 C          3.8108564930       -0.0793433252       -0.4780446073
 C          4.1783189220       -0.2401923277        0.8062460107
 C          5.2967338392       -1.1246519417        1.2744648373
 C          4.7889236737       -2.5378014087        1.5939019792
 C          3.9218775393       -3.1469355995        0.4916476950
 H          3.6458848935       -4.1537111290        0.8132621341
 H          2.9955732640       -2.5735431539        0.4058510773
 C          4.6001526383       -3.2174885160       -0.8836871561
 H          5.6801656650       -3.1178053028       -0.7692881874
 H          4.4093504170       -4.2014043750       -1.3173688385
 C          4.0993515578       -2.1816931944       -1.8922380477
 H          4.4789851132       -2.4582052674       -2.8794602618
 H          3.0075993128       -2.2153263663       -1.9417179070
 C          4.5255162279       -0.7320735747       -1.6274088427
 H          5.6073281884       -0.6860133256       -1.4870916931
 H          4.2670118153       -0.1443038061       -2.5130342231
 H          4.1961489683       -2.4942423502        2.5106981986
 H          5.6508273186       -3.1816506519        1.7777393276
 H          6.0650907856       -1.1685421748        0.5052561988
 H          5.7247231557       -0.6892707759        2.1790047420
 O          3.5289057796        0.3495597811        1.8427460793
 C          2.4194669343        1.1506324582        1.6233777321
 O          1.8941665537        1.5994933737        2.6631820886
 H         -0.0757205719       -0.1629161831        0.7762883020
 C         -0.6169165468        0.2045082895       -0.0876053044
 C         -0.2989988254        1.4573172840       -0.5991764113
 C         -1.0141379472        1.9249884380       -1.6931590709
 C         -1.9938227243        1.1401089658       -2.2781204743
 C         -2.2888953365       -0.1158217996       -1.7823916374
 C         -1.5951481483       -0.5838098261       -0.6727458819
 N         -1.9017991766       -1.8498742496       -0.1460545765
 S         -3.5166712127       -2.2565267791        0.0235408050
 O         -3.5563087308       -3.1979795829        1.1206348490
 O         -4.0300247741       -2.7372313697       -1.2349800007
 C         -4.3410227310       -0.7379888016        0.4689379529
 C         -5.3291167650       -0.2252578197       -0.3465308567
 C         -5.9344198041        0.9708356562        0.0046126994
 C         -5.5397274327        1.6320386098        1.1570424143
 C         -4.5477517935        1.1021382581        1.9682633484
 C         -3.9410089418       -0.0944319179        1.6233704103
 H         -3.1696576663       -0.5334849502        2.2362016019
 H         -4.2410802053        1.6170673877        2.8646852949
 H         -6.0070893583        2.5657193863        1.4272467434
 H         -6.7074824066        1.3841533096       -0.6227954757
 H         -5.6024291308       -0.7706567132       -1.2350752612
 H         -1.3729292128       -2.0926188537        0.6782501912
 H         -3.0342057621       -0.7461647796       -2.2395823067
 H         -2.5321799493        1.5107392802       -3.1367847854
 H         -0.7972481285        2.8998373154       -2.0970119689
 C          0.7883250798        2.2481242157        0.0881364273
 H          0.4262865618        2.5229871065        1.0897313444
 C          1.1821788640        3.5104105053       -0.6496696809
 C          0.4132377441        4.7788472876       -0.4380007506
 C          1.7941349987        4.6366635888        0.1260391044
 H          2.5990619323        5.1966998058       -0.3257719022
 H          1.9030514189        4.5017956056        1.1926608399
 H          0.2713321536        5.4424102147       -1.2775693133
 H         -0.4186400343        4.7507739392        0.2492052968
 H          1.5813860310        3.3083119084       -1.6367205014
 O          2.2916359743        0.9391219709       -1.9904381013
