  62
        -98.95212617
 C          2.3592799104        0.3324029375        0.0412447387
 C          1.5157835803       -0.2355216897       -0.9414198294
 C          1.5144270738       -1.7015812288       -1.0215105739
 C          2.2906681189       -2.4060282828       -0.1782755035
 C          2.4000152004       -3.9031526584       -0.1581748031
 C          1.4078856816       -4.5401065238        0.8229083827
 C         -0.0298897775       -4.0456172630        0.6635513507
 H         -0.6466781122       -4.6105651028        1.3669399531
 H         -0.0914260559       -2.9973693254        0.9654339743
 C         -0.6039624108       -4.1953393173       -0.7521716557
 H         -1.6219223650       -4.5830297436       -0.6731392235
 H         -0.0204725007       -4.9238829609       -1.3172588336
 C         -0.6876986276       -2.8829879504       -1.5341571912
 H         -1.1443119369       -2.1209198935       -0.8974711635
 H         -1.3471999260       -3.0366067730       -2.3928373612
 C          0.6434471430       -2.3375820864       -2.0680298385
 H          1.1835204414       -3.1309721719       -2.5898905640
 H          0.4155289943       -1.5458157239       -2.7876501607
 H          1.4388462915       -5.6232354997        0.6859771360
 H          1.7336043279       -4.3170459088        1.8416922905
 H          2.2253113773       -4.2840124670       -1.1628519454
 H          3.4148430161       -4.1649249905        0.1479226645
 O          3.0699298417       -1.8265807526        0.7715291606
 C          3.1099867512       -0.4495588770        0.9165982456
 O          3.8471931971       -0.0483773871        1.8418816195
 H          0.4390888969        0.8622571393        1.6471895727
 C          0.1455798687        1.7697205829        1.1395885488
 C          1.0584759111        2.4302209930        0.3276992754
 C          0.6581081629        3.6041610882       -0.2990163261
 C         -0.6315054787        4.0809939000       -0.1386637087
 C         -1.5528163759        3.3891135335        0.6260959175
 C         -1.1582686377        2.2197874964        1.2656581087
 N         -2.0617202568        1.4634850815        2.0414980193
 S         -2.3885711695       -0.0989147935        1.5275087675
 O         -3.3612890056       -0.6068279360        2.4715938816
 O         -1.1630069320       -0.8441451956        1.4124149435
 C         -3.1715749265        0.1073044131       -0.0628748908
 C         -2.4056575893        0.4252879524       -1.1667406320
 C         -3.0454297858        0.6392781554       -2.3787516196
 C         -4.4246219239        0.5359621341       -2.4671533190
 C         -5.1784596874        0.2173807982       -1.3473459123
 C         -4.5481912691        0.0054223528       -0.1324297696
 H         -5.0902788922       -0.2473409786        0.7645796848
 H         -6.2512146181        0.1352489089       -1.4166272030
 H         -4.9134862085        0.7038894404       -3.4138948422
 H         -2.4509271384        0.8859606557       -3.2437393164
 H         -1.3314669091        0.4957640624       -1.0868631092
 H         -2.9354821551        1.9381647481        2.2248873865
 H         -2.5669023610        3.7453124371        0.7282870920
 H         -0.9282980301        4.9937018734       -0.6323264272
 H          1.3551880344        4.1433783559       -0.9193949504
 C          2.4406683283        1.8420329445        0.1813456060
 H          2.9995677431        2.0340685113        1.1094444614
 C          3.2157317918        2.4230969595       -0.9849924078
 C          4.0493167416        3.6555145940       -0.8063495397
 C          4.7104374936        2.3220178138       -0.9790903051
 H          5.2174164307        2.1109928467       -1.9086701445
 H          5.1694143380        1.8587585781       -0.1174705637
 H          4.0723118218        4.1068638214        0.1740589407
 H          4.1075003116        4.3618771288       -1.6207641050
 H          2.7088972267        2.2780194535       -1.9323469732
 O          0.8103043161        0.4525382827       -1.7262744507
