  62
        -98.93858536
 C         -1.9116151325       -0.9369200560        0.0064194530
 C         -2.3895869373        0.3923285848        0.0567778520
 C         -3.8174916612        0.5639289621        0.3863867059
 C         -4.5806015002       -0.5209732612        0.6155535637
 C         -6.0396943521       -0.6509241596        1.0008874609
 C         -6.9912743363        0.5357052840        0.8723549134
 C         -7.2717474240        0.9787893347       -0.5631266364
 H         -7.8604569735        0.2022520836       -1.0580045850
 H         -7.8800628333        1.8852381259       -0.5279222081
 C         -6.0394545968        1.2411843502       -1.4253005517
 H         -5.4762578475        0.3144887966       -1.5532292923
 H         -6.3841042691        1.5469476030       -2.4169828777
 C         -5.0972004666        2.3259754956       -0.9069044522
 H         -4.3579015047        2.5207644757       -1.6887208721
 H         -5.6555442611        3.2489890614       -0.7387328847
 C         -4.3272465845        1.9761837801        0.3785913564
 H         -3.4436821409        2.6196177610        0.4283876722
 H         -4.9251131317        2.1744564906        1.2649891894
 H         -6.6336696909        1.3719603204        1.4657405153
 H         -7.9419372104        0.2202372295        1.3108931565
 H         -6.4288450826       -1.4863401283        0.4102597421
 H         -6.0426562282       -0.9845675656        2.0444636847
 O         -4.0659909727       -1.7854547478        0.5706973909
 C         -2.7394602558       -2.0275162799        0.2647816064
 O         -2.4235277790       -3.2343987926        0.2588718282
 H          1.5515595926        0.6498331335       -0.7960549681
 C          1.4143114095        0.3993385095        0.2417398473
 C          0.4459004580       -0.5112493838        0.6313085073
 C          0.2927313720       -0.7838292578        1.9891986082
 C          1.0768465200       -0.1477289043        2.9306818738
 C          2.0387280458        0.7672427246        2.5380899461
 C          2.2030236449        1.0441994506        1.1868357289
 N          3.1549182718        1.9868730255        0.7683464070
 S          4.1422061218        1.7006691160       -0.5474893802
 O          5.1809219828        2.7012920629       -0.4413249515
 O          3.3761564853        1.7025874445       -1.7667116489
 C          4.8287363595        0.0832244727       -0.2435068078
 C          4.2397167134       -1.0287477303       -0.8097384456
 C          4.7491306260       -2.2819153653       -0.5071433707
 C          5.8309467515       -2.4008244994        0.3513195104
 C          6.4142789714       -1.2729525954        0.9089932873
 C          5.9073600430       -0.0181843023        0.6138439486
 H          6.3379116938        0.8842821415        1.0165951016
 H          7.2589858734       -1.3686688851        1.5720435505
 H          6.2229673492       -3.3783442517        0.5840576859
 H          4.2981075433       -3.1596189158       -0.9421247154
 H          3.4035900004       -0.8975878327       -1.4762239332
 H          3.6746897145        2.4164854245        1.5193662416
 H          2.6464407233        1.2735360367        3.2726117718
 H          0.9409093862       -0.3648629365        3.9794446800
 H         -0.4629245937       -1.4955104941        2.2938590927
 C         -0.4609964545       -1.2164399749       -0.3469698623
 H         -0.3248799551       -2.3003934907       -0.2207986259
 C         -0.2010193523       -0.8597954855       -1.7951037725
 C          0.8544644758       -1.5862931614       -2.5711703488
 C         -0.5946795129       -1.8333945353       -2.8634116029
 H         -1.0112338500       -1.4496292302       -3.7826386206
 H         -1.0289498414       -2.7699932588       -2.5443747488
 H          1.4380532730       -1.0315575444       -3.2913699876
 H          1.3993775073       -2.3659181992       -2.0601539432
 H         -0.3550788215        0.1928535972       -2.0043207682
 O         -1.6632478005        1.3979209184       -0.1571179911
