  62
        -98.93824356
 C         -2.3777363319       -1.2203104782       -0.0747325073
 C         -3.1354786075       -0.4780779411        0.8684120219
 C         -3.8238424734        0.7251032149        0.3763948463
 C         -3.7092577085        1.0614930758       -0.9193919712
 C         -4.3459167302        2.2139154766       -1.6553476822
 C         -4.3782815455        3.5752254382       -0.9489405586
 C         -3.1646686173        3.8709642257       -0.0554720634
 H         -2.3765157299        3.1361873617       -0.2340002761
 H         -2.7585049406        4.8489294071       -0.3211617008
 C         -3.5130332462        3.8962639411        1.4348130241
 H         -2.7360179114        4.4515246100        1.9655928642
 H         -4.4516817990        4.4392012386        1.5656675660
 C         -3.6280946611        2.5277417321        2.1047815984
 H         -3.9800290642        2.6827543936        3.1274405088
 H         -2.6389272179        2.0659147107        2.1721320834
 C         -4.5640540630        1.5259563562        1.4086651029
 H         -4.9050287092        0.8076132023        2.1589554676
 H         -5.4320519062        2.0249721051        0.9850905786
 H         -5.2861105791        3.6555720368       -0.3528011098
 H         -4.4474177690        4.3331686635       -1.7311416785
 H         -5.3669192148        1.9244130774       -1.9211916541
 H         -3.7828777017        2.2996862946       -2.5881096345
 O         -2.9750454294        0.3193718748       -1.7941221450
 C         -2.2798798747       -0.8140227579       -1.4040938489
 O         -1.6432931850       -1.3452681671       -2.3382298367
 O         -3.2440625518       -0.8186873934        2.0759543031
 C         -1.6400032051       -2.4404793569        0.4551266490
 C         -0.2029071763       -2.0680506695        0.7300881529
 C          0.2703418662       -1.9551646351        2.0322140302
 C          1.5695227400       -1.5458904706        2.2778701964
 C          2.4174718183       -1.2279721591        1.2317413363
 C          1.9497762388       -1.3294772074       -0.0715593598
 C          0.6571377825       -1.7636978646       -0.3160833628
 H          0.2969271976       -1.8188237422       -1.3329253752
 N          2.7956250923       -0.9528453410       -1.1422769955
 S          3.0787564790        0.7088765125       -1.2159445922
 O          1.9638210967        1.4582654907       -0.6790624465
 O          3.4383655062        0.9842477468       -2.5900930696
 C          4.5132811081        0.9270246949       -0.1840188101
 C          4.4260590582        1.6865789909        0.9659582838
 C          5.5553867894        1.8373352541        1.7558807871
 C          6.7443615744        1.2287226550        1.3837632185
 C          6.8156163411        0.4706522698        0.2242313649
 C          5.6909803565        0.3171208193       -0.5705915105
 H          5.7017967834       -0.2575194359       -1.4815910952
 H          7.7421416474       -0.0001831148       -0.0621222714
 H          7.6210061436        1.3469905309        2.0008573368
 H          5.5015785566        2.4266042905        2.6571529231
 H          3.4779586633        2.1347177529        1.2170528228
 H          2.4295734040       -1.2512177792       -2.0371247359
 H          3.4269842279       -0.8972880737        1.4144868261
 H          1.9225400182       -1.4642272392        3.2944712001
 H         -0.3977795500       -2.1687829398        2.8538561921
 H         -2.1175993878       -2.6686351532        1.4173737888
 C         -1.7512712901       -3.6590995509       -0.4376433707
 C         -1.4792105972       -5.0115853957        0.1474385198
 C         -2.8781399024       -4.6226599522       -0.2230371972
 H         -3.3325008679       -5.0822355320       -1.0878828317
 H         -3.5758321867       -4.4062750369        0.5727250910
 H         -0.9700452291       -5.7424116744       -0.4616825734
 H         -1.2282799577       -5.0599335020        1.1961454027
 H         -1.4433353164       -3.4793357533       -1.4592700918
