  62
        -98.94315964
 C         -1.9299707900       -0.1594474704        0.4047781499
 C         -2.7666713700       -0.3935389095       -0.7139727003
 C         -4.0292351000        0.3623897005       -0.7385595698
 C         -4.2995675601        1.2400825197        0.2435909009
 C         -5.5683165801        2.0321858096        0.3640905315
 C         -6.6155507001        1.2812257689        1.1985935509
 C         -6.8206401000       -0.1722281608        0.7714460798
 H         -7.6020177800       -0.5909475613        1.4093769794
 H         -5.9061411200       -0.7349606009        0.9720199493
 C         -7.2124568100       -0.3520723496       -0.7018210104
 H         -7.5841587700        0.5910069207       -1.1042354097
 H         -8.0298229900       -1.0738998796       -0.7611201010
 C         -6.0884440000       -0.8769000689       -1.5969665408
 H         -6.5260078899       -1.1699963282       -2.5549937710
 H         -5.6518887300       -1.7729509993       -1.1488942015
 C         -4.9561672100        0.1138202113       -1.8954016600
 H         -5.3756661700        1.0529515416       -2.2617600393
 H         -4.3371378100       -0.3176337580       -2.6873694903
 H         -7.5623315401        1.8200036089        1.1293667413
 H         -6.2960372101        1.2891746381        2.2433335309
 H         -5.9594770801        2.2359003503       -0.6308613883
 H         -5.3371519601        2.9795608592        0.8541809822
 O         -3.4515032301        1.4730620989        1.2778423111
 C         -2.2583431701        0.7820010989        1.3849731306
 O         -1.5800027801        1.0867695981        2.3877193608
 O         -2.4978703200       -1.1896114888       -1.6506041309
 C         -0.5976024000       -0.8669657005        0.6002958993
 C          0.4569066200       -0.2163009298       -0.2621703301
 C          0.5540481600       -0.4663663787       -1.6263862403
 C          1.5358867900        0.1487003919       -2.3824447498
 C          2.4444022600        1.0123827914       -1.7963531392
 C          2.3533164200        1.2694166804       -0.4351741190
 C          1.3644237500        0.6568373398        0.3213972006
 H          1.2864192999        0.8711495889        1.3793415107
 N          3.3047334699        2.1165289399        0.1712017017
 S          4.8981467399        1.6121419901        0.0082172414
 O          5.6046597199        2.1817179692        1.1335647518
 O          5.3835891600        1.9815109911       -1.2971289383
 C          4.8027020300       -0.1638873700        0.1469214700
 C          4.5392814800       -0.7041475910        1.3901594296
 C          4.3654705300       -2.0737347611        1.5028890285
 C          4.4473575800       -2.8745760802        0.3738679879
 C          4.7164510000       -2.3173072992       -0.8661936117
 C          4.8944171600       -0.9481950192       -0.9846939206
 H          5.1047214100       -0.4753649284       -1.9296707503
 H          4.7809114901       -2.9429227386       -1.7415960422
 H          4.3003111501       -3.9392919103        0.4633261470
 H          4.1604539000       -2.5108314618        2.4673103281
 H          4.4852616199       -0.0505388217        2.2463959601
 H          3.1000978499        2.3120956592        1.1410146819
 H          3.2237460600        1.4903981719       -2.3678068588
 H          1.5969181500       -0.0491009073       -3.4417321100
 H         -0.1613768000       -1.1252962184       -2.0916667409
 H         -0.3230492700       -0.6870114813        1.6483044195
 C         -0.6651113200       -2.3643416203        0.3747626882
 C          0.4862294800       -3.2067944407        0.8331908275
 C         -0.8267375000       -3.2753872512        1.5523841875
 H         -1.4333866300       -4.1612739512        1.4381166268
 H         -0.8986921300       -2.8225303620        2.5308591978
 H          0.7829003201       -4.0462343002        0.2241435169
 H          1.3086257800       -2.7024965510        1.3184031179
 H         -1.1638928900       -2.6445424896       -0.5427106420
