  62
        -98.93807855
 C         -0.1107204305       -1.9677706424        0.0980197716
 C         -1.0968108699       -1.5754679770        1.0327250274
 C         -2.4353775063       -1.3044344384        0.4866137322
 C         -2.6314497336       -1.4034097377       -0.8411481864
 C         -3.9162453565       -1.1002424872       -1.5584885529
 C         -4.1182070089        0.4240087535       -1.6693419750
 C         -5.3277025760        0.9499970475       -0.8972053801
 H         -5.2611253467        2.0395175705       -0.8818691394
 H         -6.2378288238        0.6853865505       -1.4394929303
 C         -5.4722237395        0.4372491684        0.5390026419
 H         -6.1910840667        1.0888467617        1.0401641782
 H         -5.9130765165       -0.5607068247        0.5302296263
 C         -4.1819981035        0.3973531904        1.3680450212
 H         -4.4230888417        0.7109287138        2.3857813603
 H         -3.4506020011        1.1034785908        0.9784224236
 C         -3.5265163341       -0.9914260706        1.4738379992
 H         -3.0471122123       -1.0765425378        2.4536477441
 H         -4.2968594905       -1.7662238867        1.4187891726
 H         -3.2109071308        0.9149525899       -1.3123791008
 H         -4.2358994201        0.6989966588       -2.7183370930
 H         -3.8462004903       -1.5490906982       -2.5494675916
 H         -4.7474656413       -1.5593409959       -1.0274622033
 O         -1.6433663466       -1.7346311141       -1.7128218843
 C         -0.3684381975       -2.0509217860       -1.2697458520
 O          0.4229541873       -2.3813048356       -2.1723139864
 H          1.3458873288        0.2987526979        0.2985924060
 C          2.2030095075       -0.1696483393       -0.1666905394
 C          2.3353846925       -1.5527981103       -0.1178915404
 C          3.4463015341       -2.1356901605       -0.7135663403
 C          4.3902300406       -1.3529605050       -1.3544620843
 C          4.2591943148        0.0219507429       -1.3938040885
 C          3.1569060502        0.6174229357       -0.7904384434
 N          2.9928056695        2.0105620210       -0.8209622022
 S          2.3767245134        2.8150406830        0.5064344668
 O          2.8856263719        4.1656575268        0.3793300952
 O          2.6936084628        2.1381695885        1.7418610093
 C          0.6168180575        2.8773516399        0.2529666384
 C         -0.2090155289        2.8971003194        1.3591132374
 C         -1.5702832560        3.0823533656        1.1782816323
 C         -2.0797974443        3.2402637591       -0.1014334398
 C         -1.2399337893        3.1982088050       -1.2039391839
 C          0.1234218985        3.0226837782       -1.0282631581
 H          0.8048844442        2.9950991423       -1.8622687022
 H         -1.6418786300        3.3096553748       -2.1983894245
 H         -3.1379771854        3.3999130810       -0.2396068542
 H         -2.2240013331        3.1077224410        2.0356146658
 H          0.2275717930        2.7648648141        2.3364206470
 H          3.7519799977        2.5203112045       -1.2490372087
 H          4.9985594871        0.6337978697       -1.8880257293
 H          5.2433728081       -1.8201172338       -1.8226010619
 H          3.5711551428       -3.2052901081       -0.6842522080
 C          1.2712280514       -2.3459805357        0.5974258881
 H          1.2909793484       -2.0590078006        1.6597245707
 C          1.4582286506       -3.8464233610        0.4963670052
 C          2.3794915575       -4.5600245571        1.4389476165
 C          0.8960173372       -4.7196802870        1.5761656861
 H          0.4489113974       -5.6620212902        1.2970577919
 H          0.3999594257       -4.2285881909        2.4005671686
 H          2.9513026050       -5.3971762095        1.0678522804
 H          2.8958121310       -3.9654252684        2.1774691561
 H          1.3866878853       -4.2062071462       -0.5243580999
 O         -0.8712453058       -1.4692762984        2.2693876453
