  62
        -98.94536247
 C          2.6460936853        1.0779203595        0.2879170765
 C          2.5693091581        0.3136984620       -0.9020086458
 C          3.2041276993       -1.0115085183       -0.8528542831
 C          3.8097788470       -1.4125773332        0.2796132633
 C          4.4407639398       -2.7586229933        0.4855105768
 C          3.4333704138       -3.7590051936        1.0697356992
 C          2.0958507628       -3.7954066597        0.3292082345
 H          1.4759969824       -4.5559185859        0.8098278967
 H          1.5814140086       -2.8397688882        0.4614419944
 C          2.2082898545       -4.1014176214       -1.1708239617
 H          3.1787082020       -4.5509499707       -1.3854763273
 H          1.4431238475       -4.8343997696       -1.4349004669
 C          1.9963944513       -2.8913123092       -2.0828165150
 H          1.0652066496       -2.3853668575       -1.8101981783
 H          1.8788983928       -3.2555008496       -3.1070723435
 C          3.1300198461       -1.8573787992       -2.0922918910
 H          4.0824811178       -2.3584183361       -2.2768665373
 H          2.9380487645       -1.1642128140       -2.9164405101
 H          3.8841718924       -4.7527780030        1.0543896353
 H          3.2401283861       -3.4893638417        2.1106943022
 H          4.8221742219       -3.1244582797       -0.4655304020
 H          5.2724457532       -2.6459967455        1.1829426089
 O          3.8695427575       -0.6466879071        1.3995181586
 C          3.2712518064        0.6031044535        1.4395900492
 O          3.3591963344        1.1808997167        2.5428166716
 H          0.3645898479        0.6943430454        1.5195317196
 C         -0.1800421783        1.2896583698        0.7951070574
 C          0.4989216944        2.2736186689        0.0860653025
 C         -0.2104449007        3.0311186743       -0.8354476820
 C         -1.5565295003        2.7888074950       -1.0521546710
 C         -2.2231987527        1.7981001262       -0.3553491614
 C         -1.5253110860        1.0421816371        0.5779212325
 N         -2.1967936017        0.0340084279        1.2988965699
 S         -2.9224382914       -1.1824304427        0.3890220096
 O         -2.9815332198       -2.3290605324        1.2702249856
 O         -2.2480055995       -1.3756795197       -0.8735900652
 C         -4.5724478448       -0.5707088597        0.1213482352
 C         -5.3384644750       -0.2654568482        1.2294828014
 C         -6.6252446331        0.2129255486        1.0416662889
 C         -7.1220827721        0.3740120681       -0.2433976150
 C         -6.3415714854        0.0591438131       -1.3452306231
 C         -5.0525820883       -0.4184944176       -1.1644131926
 H         -4.4057695890       -0.6696579554       -1.9899771804
 H         -6.7295340769        0.1846210526       -2.3432957022
 H         -8.1237165377        0.7472680267       -0.3870651979
 H         -7.2351314112        0.4589911100        1.8958870668
 H         -4.9145565991       -0.4089435989        2.2093083381
 H         -1.6263537277       -0.3806469038        2.0226884185
 H         -3.2687486482        1.6014930398       -0.5282633994
 H         -2.0933101441        3.3789297065       -1.7791062090
 H          0.2931955296        3.8016084559       -1.3954524022
 C          1.9756886725        2.4394077613        0.3543288469
 H          2.0985931739        2.7898332746        1.3896611827
 C          2.6609544500        3.4163026212       -0.5769118922
 C          2.6362151842        4.8843082277       -0.2778873801
 C          3.9057908233        4.1064525068       -0.1095186401
 H          4.7059323488        4.2610314482       -0.8176131939
 H          4.2466370619        3.8883357114        0.8924093473
 H          2.5680948835        5.5776803102       -1.1024078603
 H          2.1170965654        5.2040699947        0.6129074628
 H          2.6228569442        3.1003174540       -1.6128315707
 O          2.0008441554        0.7144030466       -1.9503769110
