  62
        -98.94517849
 C         -2.0967650100       -1.4742931710       -0.0233365241
 C         -1.8854510667       -0.4564996168       -0.9847359454
 C         -2.8050841953        0.6895757061       -0.9167932447
 C         -3.7477135063        0.7288534427        0.0419175987
 C         -4.6946557333        1.8701801079        0.2702383517
 C         -4.1056658957        2.8920642696        1.2533595062
 C         -2.6795796366        3.3279650152        0.9153795260
 H         -2.3872169296        4.0753225723        1.6559587380
 H         -2.0068278468        2.4753966520        1.0339595336
 C         -2.5137105017        3.9097815932       -0.4952507952
 H         -1.9093061550        4.8169680620       -0.4340548462
 H         -3.4870054186        4.1990827873       -0.8932857453
 C         -1.8183425040        2.9740979903       -1.4853954089
 H         -0.8886216813        2.6019250409       -1.0488939823
 H         -1.5581242517        3.5530629669       -2.3753444371
 C         -2.6415584793        1.7676050177       -1.9514491085
 H         -3.6161614377        2.1010907409       -2.3139618438
 H         -2.1056728188        1.3037295219       -2.7846802401
 H         -4.7602086695        3.7654396091        1.2736825571
 H         -4.1012465607        2.4481852064        2.2515828902
 H         -4.9144518364        2.3502633856       -0.6813996121
 H         -5.6207261145        1.4705938635        0.6870113865
 O         -3.9116045759       -0.2603404959        0.9568425036
 C         -3.0984789771       -1.3788267869        0.9473783751
 O         -3.3619885165       -2.2106040194        1.8386930865
 H          0.9885784197       -1.8737235906       -1.3333042575
 C          1.1559569614       -1.9286458557       -0.2694452376
 C          0.1314020425       -2.3488215602        0.5649974168
 C          0.3561292301       -2.3710617271        1.9382666729
 C          1.5831137953       -2.0018628730        2.4578316172
 C          2.6078248021       -1.5939252794        1.6215547489
 C          2.3847499426       -1.5421992503        0.2516650155
 N          3.4099247902       -1.1264354181       -0.6160047965
 S          4.3112646028        0.2398642148       -0.2813538434
 O          5.0432247645        0.5095778384       -1.4973514025
 O          5.1035517194        0.0090303724        0.9008816533
 C          3.1400343630        1.5496525122        0.0224294746
 C          2.7177079699        2.3146698774       -1.0467474885
 C          1.7962234407        3.3250087813       -0.8271731800
 C          1.3028985122        3.5426070511        0.4505204841
 C          1.7312160441        2.7616091842        1.5122218064
 C          2.6619575569        1.7567138648        1.3008005311
 H          3.0287225151        1.1426219644        2.1062034419
 H          1.3447798525        2.9323726620        2.5043013575
 H          0.5802745851        4.3252227749        0.6196930512
 H          1.4628512661        3.9357080301       -1.6508431400
 H          3.1291678715        2.1164609034       -2.0233586551
 H          3.1348958631       -1.1312368608       -1.5876110015
 H          3.5740063119       -1.3155846483        2.0101276224
 H          1.7470029930       -2.0362137025        3.5244152244
 H         -0.4476525797       -2.6761268105        2.5937836510
 C         -1.2296206183       -2.7234484069        0.0299280896
 H         -1.7069837942       -3.3844660873        0.7652789369
 C         -1.1761015217       -3.4449224275       -1.3011067385
 C         -0.6649763319       -4.8525537265       -1.3451139152
 C         -2.1227248294       -4.5770712882       -1.5570800623
 H         -2.5314377713       -4.6922692384       -2.5498766298
 H         -2.8128244274       -4.8409960415       -0.7688109462
 H         -0.3647612438       -5.3027188769       -0.4108239409
 H         -0.0707221972       -5.1604726072       -2.1918380478
 H         -0.9481475781       -2.7979455245       -2.1380748654
 O         -0.9862667696       -0.4885538535       -1.8660555138
