  62
        -98.93373032
 C         -2.2116050962       -0.9085330656        0.1131239203
 C         -2.5314553304        0.1598944320        0.9795664386
 C         -3.2045280269        1.3289291199        0.3806785613
 C         -3.4367663183        1.3303450467       -0.9455052884
 C         -4.1373245873        2.3805411875       -1.7656390843
 C         -5.6647675010        2.3412658302       -1.5934987874
 C         -6.1461409517        2.1726174459       -0.1546463587
 H         -5.7226580277        1.2559075565        0.2599448240
 H         -7.2315207040        2.0444949506       -0.1805309217
 C         -5.8366384879        3.3422464003        0.7767090655
 H         -6.3059398134        3.1232074785        1.7392698518
 H         -6.3008195078        4.2479980914        0.3800932168
 C         -4.3539061503        3.6262889516        1.0251398569
 H         -4.2925280197        4.3117907349        1.8755286952
 H         -3.9073416173        4.1429701465        0.1799465022
 C         -3.5222971954        2.4017912537        1.3948182333
 H         -3.9983994960        1.8868648152        2.2371416288
 H         -2.5527167250        2.7424589233        1.7784515259
 H         -6.0472170552        1.4971067761       -2.1723815565
 H         -6.0832780213        3.2565585539       -2.0152650859
 H         -3.8999898661        2.1711794999       -2.8109629679
 H         -3.7448442961        3.3646275568       -1.5275673127
 O         -3.0760054314        0.2897289268       -1.7499616628
 C         -2.4646479050       -0.8478525999       -1.2569229695
 O         -2.2017941276       -1.7079459640       -2.1179096198
 O         -2.2682425197        0.1453488181        2.2140927278
 C         -1.5404650855       -2.1453546875        0.6815419264
 C         -0.1750891917       -2.3217836656        0.0626623841
 C          0.2607761569       -3.5078156755       -0.5111017268
 C          1.5278659827       -3.5932927194       -1.0629335466
 C          2.3848349079       -2.5089620053       -1.0534255428
 C          1.9652294746       -1.3207826102       -0.4675286705
 C          0.6977109456       -1.2400199508        0.0886775288
 H          0.3684910093       -0.3145472560        0.5463517335
 N          2.8186001575       -0.1957613545       -0.4616911132
 S          4.3802915081       -0.4151743716        0.1484753684
 O          5.1333950416       -1.2107169844       -0.7866543903
 O          4.3205261195       -0.9196672745        1.5036863174
 C          4.9819764267        1.2612260970        0.1355823623
 C          4.9642293985        2.0009643038        1.3023464162
 C          5.4181956421        3.3103544264        1.2725144381
 C          5.8762857445        3.8548527084        0.0823501387
 C          5.8871297551        3.0994907809       -1.0810145312
 C          5.4360065678        1.7895527132       -1.0578025179
 H          5.4341826767        1.1625155059       -1.9339160549
 H          6.2457377822        3.5263333216       -2.0036849910
 H          6.2294641056        4.8737675073        0.0622467490
 H          5.4131008448        3.8989745570        2.1758228422
 H          4.6079197524        1.5344018396        2.2070099708
 H          2.3865415524        0.5846138657        0.0165232038
 H          3.3730543856       -2.5700394631       -1.4784767214
 H          1.8521016669       -4.5198397487       -1.5124643676
 H         -0.3914666352       -4.3650973453       -0.5337348598
 H         -1.4016286325       -1.9366175435        1.7531305645
 C         -2.4408212803       -3.3531877458        0.5338650342
 C         -2.3242724102       -4.5012985037        1.4900194434
 C         -3.5105132560       -3.5883916871        1.5563553253
 H         -4.4684527112       -3.9595948340        1.2244613993
 H         -3.5740381001       -2.8894192741        2.3776573395
 H         -2.4697515253       -5.5026907449        1.1140006130
 H         -1.5828159534       -4.4271777412        2.2712156719
 H         -2.6825518219       -3.5685329275       -0.5008277138
