  62
        -98.94379711
 C         -1.6447894832       -1.4244787258        0.4041535933
 C         -1.7695763141       -0.1802998885        1.0783263937
 C         -3.0400103255        0.5309834014        0.9057291614
 C         -4.0215885461       -0.0296559770        0.1769739195
 C         -5.3934037144        0.5437641899       -0.0546080740
 C         -5.4648856119        1.5525718602       -1.2090155017
 C         -4.8135503899        2.9072664005       -0.9285246816
 H         -5.1230639842        3.5830977165       -1.7282406554
 H         -5.2041096839        3.3097620621        0.0066351674
 C         -3.2798111377        2.8709414133       -0.8771386617
 H         -2.9216754053        1.9492284283       -1.3416447331
 H         -2.8768109804        3.7002229543       -1.4624401965
 C         -2.6865488417        2.9776533988        0.5277915000
 H         -1.6013913025        2.8880164190        0.4425971397
 H         -2.9182394329        3.9577915632        0.9504379822
 C         -3.1723642870        1.8985070296        1.5041608591
 H         -2.5443990253        1.9321919737        2.3977987491
 H         -4.2049521415        2.0891098875        1.7961989308
 H         -5.0069381233        1.1039821941       -2.0936394191
 H         -6.5216697194        1.7192318821       -1.4304829609
 H         -6.0456841385       -0.2991313033       -0.2933198321
 H         -5.7532611197        1.0119866654        0.8621366547
 O         -3.8755567409       -1.2337898782       -0.4323264989
 C         -2.6816857289       -1.9421156250       -0.3726495124
 O         -2.7019110805       -2.9925182532       -1.0444675015
 O         -0.8611764797        0.3070442389        1.8014666505
 C         -0.3194650649       -2.1465802184        0.5708190084
 C          0.6302012127       -1.8367119464       -0.5620795229
 C          0.2939323566       -2.1050417490       -1.8848225956
 C          1.1878299801       -1.8246533155       -2.9017361409
 C          2.4258706481       -1.2725979821       -2.6228978406
 C          2.7744825965       -1.0068452367       -1.3034770524
 C          1.8741514883       -1.2891021988       -0.2846500434
 H          2.1577701783       -1.0859523215        0.7360284906
 N          4.0355796663       -0.4832589283       -0.9968688120
 S          4.3134896566        0.4816359367        0.3342203159
 O          5.6103157074        1.0672954930        0.0722138608
 O          4.2045733110       -0.2954550683        1.5430604998
 C          3.0681570125        1.7563582454        0.2898258085
 C          2.1229268948        1.8417070725        1.2898478521
 C          1.1779423200        2.8537140240        1.2357549983
 C          1.1920240587        3.7553354899        0.1836735775
 C          2.1492035729        3.6567820400       -0.8156604657
 C          3.0979710199        2.6498287809       -0.7639730856
 H          3.8675124075        2.5550038248       -1.5127508386
 H          2.1574183871        4.3624081733       -1.6308300519
 H          0.4547807402        4.5422400626        0.1439014816
 H          0.4305182664        2.9145509096        2.0102500675
 H          2.1284904827        1.1222725700        2.0922462907
 H          4.5998069853       -0.2186490514       -1.7898863117
 H          3.1219583043       -1.0572405475       -3.4188987699
 H          0.9168768890       -2.0368014786       -3.9250486827
 H         -0.6713614082       -2.5346660863       -2.1050528517
 H          0.1203210222       -1.7319803441        1.4886969073
 C         -0.4501135237       -3.6472433006        0.7447091498
 C          0.6692195005       -4.3983312476        1.3984887128
 C         -0.6326516569       -4.2150202242        2.1184889299
 H         -1.2820428055       -5.0689238525        2.2400625965
 H         -0.6636092221       -3.5222340140        2.9470276737
 H          0.9167768465       -5.3803900534        1.0257634988
 H          1.5229317173       -3.8305561271        1.7384793910
 H         -0.9757537223       -4.1317016798       -0.0675409317
