  62
        -98.94391782
 C         -1.7797653096       -1.1959698701        0.4014521408
 C         -1.9344090797       -0.2666156502       -0.6550586792
 C         -3.3159387997       -0.0343282703       -1.1032590793
 C         -4.3218210297       -0.7152218603       -0.5244548393
 C         -5.7767665197       -0.5348386404       -0.8451973693
 C         -6.4176519897        0.5205479796        0.0669168806
 C         -5.6241262898        1.8243712596        0.1538142106
 H         -6.1848850899        2.5044901896        0.7986350205
 H         -4.6684958798        1.6299399697        0.6463759706
 C         -5.3649507199        2.5008355696       -1.1995918195
 H         -6.0546653698        2.1089955295       -1.9480297494
 H         -5.5662306499        3.5696694496       -1.1012751595
 C         -3.9301831898        2.3643703196       -1.7133878294
 H         -3.8022988299        3.0536242996       -2.5525730395
 H         -3.2283469199        2.6695526097       -0.9324447394
 C         -3.5256111897        0.9680148996       -2.2029769493
 H         -4.2594113597        0.6038816595       -2.9250141693
 H         -2.5605524597        1.0624899997       -2.7098849693
 H         -6.5018293497        0.1035783396        1.0731253907
 H         -7.4242364898        0.7291762195       -0.2998818594
 H         -5.8802243797       -0.2408294105       -1.8877277293
 H         -6.2836091796       -1.4892176305       -0.6934733192
 O         -4.1292901696       -1.6211187202        0.4680902208
 C         -2.8615366796       -1.8707440701        0.9672221808
 O         -2.8282359096       -2.7001148501        1.8986690209
 H          2.0835743003       -0.3744972798        0.4640312908
 C          1.4902179803        0.2064221202        1.1485262408
 C          0.2155768203       -0.2115577599        1.4954362108
 C         -0.5167265498        0.5602323401        2.3948256507
 C          0.0103005801        1.7226301202        2.9215805507
 C          1.2780736401        2.1443538403        2.5585712507
 C          2.0194583302        1.3818169002        1.6661403207
 N          3.3244848601        1.7584690303        1.3046996807
 S          3.7395302602        1.8058444103       -0.3222389893
 O          4.9290838101        2.6319542803       -0.3579284893
 O          2.6384885902        2.2492655601       -1.1433333493
 C          4.1994550203        0.1355655003       -0.7275934192
 C          3.5828249604       -0.5042913598       -1.7843917191
 C          3.9804350305       -1.7918524798       -2.1098595090
 C          4.9812535705       -2.4118349397       -1.3765544490
 C          5.5892967504       -1.7545817896       -0.3172659890
 C          5.1992267203       -0.4663002896        0.0110890509
 H          5.6511034203        0.0817855705        0.8206818209
 H          6.3647072404       -2.2422496795        0.2510363410
 H          5.2861052906       -3.4146278497       -1.6321432689
 H          3.5051923405       -2.3053689999       -2.9307601790
 H          2.7984327103        0.0111631101       -2.3167745892
 H          3.6574663601        2.5906073604        1.7716713407
 H          1.6893438600        3.0568031203        2.9637647406
 H         -0.5709149299        2.3105223002        3.6163366406
 H         -1.5091673398        0.2324052901        2.6747795407
 C         -0.3988585496       -1.4835355900        0.9631557009
 H         -0.5566939896       -2.1624975199        1.8141818309
 C          0.4584097304       -2.1885843700       -0.0666052191
 C          1.5471880305       -3.1179189399        0.3762547910
 C          0.3002173005       -3.6672147500       -0.2472765290
 H          0.3554212306       -4.0727070200       -1.2461640690
 H         -0.4152674194       -4.1692373500        0.3879872910
 H          2.4632758805       -3.1474233898       -0.1937882590
 H          1.6825778905       -3.2540446898        1.4384396510
 H          0.6214357904       -1.5900797500       -0.9557460691
 O         -0.9724134397        0.3373486199       -1.1977318693
