  62
        -98.93760361
 C          1.9119342123        1.3912127549       -0.0128984706
 C          2.5539599380        0.7409019734        1.0667989742
 C          3.7769810681       -0.0073533840        0.7407357744
 C          4.2006037554       -0.0436115469       -0.5360029789
 C          5.3837325145       -0.8202778077       -1.0402164655
 C          5.0206148481       -2.3135479493       -1.1679393222
 C          5.7857541418       -3.2325611964       -0.2150639599
 H          5.2975305149       -4.2092342039       -0.2406924282
 H          6.8032153381       -3.3634323194       -0.5893869957
 C          5.8793864989       -2.7592943756        1.2387463503
 H          6.2066031484       -3.6163110119        1.8312963637
 H          6.6603361664       -2.0028597632        1.3287994895
 C          4.5855390961       -2.2042807626        1.8483224287
 H          4.5225788318       -2.5489003761        2.8825932820
 H          3.7141762905       -2.6031834783        1.3279270384
 C          4.5013261142       -0.6665859331        1.8820353820
 H          3.9459652246       -0.3673633996        2.7759377054
 H          5.5080340908       -0.2481662625        1.9660112258
 H          5.2088394730       -2.6478316797       -2.1893349032
 H          3.9471171128       -2.4213894043       -0.9973699866
 H          6.2260799162       -0.6872462600       -0.3649817659
 H          5.6487489784       -0.4101870481       -2.0149026850
 O          3.5420613643        0.5733475416       -1.5508835555
 C          2.3814475884        1.2993519515       -1.3231000303
 O          1.8810232958        1.8004782236       -2.3463845159
 O          2.1207416886        0.7811852454        2.2510670166
 C          0.6475144004        2.1876363447        0.2583329084
 C         -0.5179038034        1.5472496852       -0.4549099307
 C         -1.3675369916        2.2299539676       -1.3141186275
 C         -2.4051422299        1.5658757902       -1.9470613037
 C         -2.6258822229        0.2191387197       -1.7288819295
 C         -1.7952983371       -0.4684453732       -0.8516360804
 C         -0.7566110555        0.1976487165       -0.2207076860
 H         -0.1066785379       -0.3398630941        0.4587813564
 N         -2.0238650303       -1.8318040849       -0.6035326180
 S         -3.6016500253       -2.3425142360       -0.3836355171
 O         -3.5044877010       -3.5138875917        0.4591549544
 O         -4.2306416735       -2.5427991804       -1.6655175835
 C         -4.4153943366       -1.0124710134        0.4843114475
 C         -3.9002083890       -0.6167638158        1.7028797419
 C         -4.5040718001        0.4321068081        2.3767880500
 C         -5.6080206111        1.0635948603        1.8241871734
 C         -6.1171182661        0.6504172005        0.6030771310
 C         -5.5154862203       -0.3966275096       -0.0766926202
 H         -5.8756396405       -0.7477188692       -1.0300118255
 H         -6.9767262819        1.1418694040        0.1768247893
 H         -6.0733413453        1.8820215806        2.3503399006
 H         -4.1087558487        0.7542744096        3.3268398010
 H         -3.0429662427       -1.1297921723        2.1090841624
 H         -1.4034693056       -2.2373861735        0.0809820290
 H         -3.4169071973       -0.3141707699       -2.2305719173
 H         -3.0492081525        2.1052830327       -2.6243794566
 H         -1.2108835845        3.2791996400       -1.5003717242
 H          0.4744990957        2.0953427475        1.3407199901
 C          0.8475977200        3.6491989797       -0.0789313019
 C          0.0296755686        4.6970620775        0.6131983244
 C          1.4844416742        4.5461121820        0.9385677988
 H          2.1732920071        5.3042823772        0.5974092534
 H          1.7559907389        4.1070206492        1.8875627720
 H         -0.2807643631        5.5641721263        0.0503238509
 H         -0.6899949554        4.3649519848        1.3457700394
 H          1.1130647833        3.8062717529       -1.1179982067
