  62
        -98.94317644
 C         -1.2468275878       -1.0819092795       -0.0364844291
 C         -1.7701050338       -0.0524029258        0.7828087170
 C         -2.6760716140        0.8976506752        0.1238880250
 C         -2.9481664603        0.7463649582       -1.1851469199
 C         -3.8964971011        1.6076491032       -1.9670764471
 C         -5.3192556600        1.0316314513       -1.9417894280
 C         -5.8132805533        0.6660845154       -0.5419859520
 H         -5.2130446756       -0.1616207339       -0.1573458240
 H         -6.8369542426        0.2994531442       -0.6445173690
 C         -5.7831333517        1.8246384327        0.4647576552
 H         -6.7233645850        1.8299628704        1.0201897796
 H         -5.7163448055        2.7749722176       -0.0662554103
 C         -4.6565140949        1.7389244060        1.4959899646
 H         -4.6655710666        0.7521640289        1.9654645910
 H         -4.8561042686        2.4757139103        2.2785630591
 C         -3.2430956278        2.0071490435        0.9640319375
 H         -2.5764538584        2.0975901617        1.8264277371
 H         -3.2300495741        2.9515984045        0.4161283691
 H         -5.3385198873        0.1298279049       -2.5582734660
 H         -5.9952604551        1.7626168802       -2.3893095413
 H         -3.8939738109        2.6135150527       -1.5512618934
 H         -3.5504095008        1.6512860690       -3.0013213093
 O         -2.4173990532       -0.2475213725       -1.9434639313
 C         -1.5532001224       -1.1865013660       -1.3932896613
 O         -1.1319921280       -2.0318463691       -2.2050010885
 H          0.8199834960       -0.0064865632       -0.7624471718
 C          1.5146091154       -0.8289443920       -0.6432037201
 C          1.0974967906       -1.9866726734       -0.0029419107
 C          2.0177355955       -3.0203930245        0.1416494969
 C          3.3101503459       -2.8923335795       -0.3361919780
 C          3.7184277015       -1.7335385699       -0.9738093899
 C          2.8048699824       -0.7040166710       -1.1358284722
 N          3.2232512938        0.5025602671       -1.7566164057
 S          4.0152686032        1.5297745788       -0.6910234082
 O          4.1571956394        2.7923355784       -1.3802103168
 O          5.2327255770        0.8883419016       -0.2667942327
 C          2.8891614978        1.6913534247        0.6817496325
 C          2.9457892701        0.7676247423        1.7060775855
 C          1.9923479613        0.8233563558        2.7095522389
 C          0.9992500174        1.7894690349        2.6693623577
 C          0.9564589442        2.7093962973        1.6331674436
 C          1.9048379514        2.6577522044        0.6245882772
 H          1.9036223005        3.3534438019       -0.2000980519
 H          0.1785551537        3.4557851390        1.6019833647
 H          0.2449687962        1.8129775077        3.4391580618
 H          2.0156961354        0.1046369980        3.5126680442
 H          3.7300025815        0.0277922166        1.6988813332
 H          2.4540439179        1.0101268715       -2.1726619684
 H          4.7251097689       -1.6056985581       -1.3362514235
 H          4.0101058913       -3.7038294142       -0.2089708491
 H          1.7183931136       -3.9298329930        0.6372170911
 C         -0.2908658632       -2.0775668423        0.5850848109
 H         -0.2175106534       -1.7814428796        1.6434217353
 C         -0.8555642255       -3.4842058035        0.5142307886
 C         -0.6790348427       -4.4402421470        1.6550144411
 C         -2.0233073469       -3.8367434414        1.3852666257
 H         -2.8029576309       -4.4617990501        0.9765344924
 H         -2.3846196524       -3.0736889571        2.0594610690
 H         -0.1408219131       -4.0937667569        2.5244555498
 H         -0.5348171476       -5.4866677756        1.4316994828
 H         -0.8480200414       -3.8834702553       -0.4936009234
 O         -1.4890439317        0.0670309897        2.0038565048
