  62
        -98.94965344
 C         -1.6857352786       -1.2242882700        0.3381279303
 C         -1.3296904290       -0.1625063403       -0.5257974202
 C         -1.8895774594        1.1501202297       -0.1919543008
 C         -2.6504594994        1.2899054399        0.9083840792
 C         -3.2605089199        2.5724830799        1.4054523586
 C         -4.5893198200        2.9399474791        0.7303105185
 C         -4.4737050502        3.4288260885       -0.7140073817
 H         -5.4413850604        3.8555912781       -0.9851041019
 H         -3.7372078505        4.2312991088       -0.7652451321
 C         -4.1157291199        2.3324699782       -1.7268500012
 H         -4.3002625895        1.3522345984       -1.2815323808
 H         -4.7671656499        2.4167837076       -2.5994791613
 C         -2.6734035099        2.3825870185       -2.2305769313
 H         -2.5196604496        1.5429911182       -2.9127624009
 H         -2.5123455302        3.3067215683       -2.7898157717
 C         -1.6155737598        2.2925106993       -1.1226028813
 H         -1.5668191601        3.2288346496       -0.5665074517
 H         -0.6415418698        2.1163854095       -1.5858612612
 H         -5.2514674197        2.0719425289        0.7701855289
 H         -5.0464705203        3.7341399592        1.3250827182
 H         -3.4417589998        2.4349575903        2.4739153787
 H         -2.5451879501        3.3863760101        1.2807571583
 O         -2.9454881791        0.2496489702        1.7336809496
 C         -2.4728673986       -1.0259521198        1.4702861402
 O         -2.8159440883       -1.8866291796        2.3086210406
 O         -0.5754025289       -0.3046086105       -1.5244361202
 C         -1.1354012681       -2.6153476700        0.0817503309
 C          0.3713864819       -2.5600519195       -0.0009841292
 C          1.1129781121       -3.2874427696       -0.9238902689
 C          2.4922663521       -3.1750846292       -0.9615019290
 C          3.1574612018       -2.3214433286       -0.1004907694
 C          2.4247723716       -1.5978123884        0.8329595603
 C          1.0493941616       -1.7454896588        0.8970116704
 H          0.4964303014       -1.1779084187        1.6317140402
 N          3.0470701813       -0.6941125478        1.7206350599
 S          2.6381256807        0.9250905020        1.5631501792
 O          3.4628282205        1.6137215427        2.5335796489
 O          1.2145764007        1.0932303916        1.7005630092
 C          3.1825358105        1.3569774915       -0.0806070810
 C          4.4058075403        1.9839773018       -0.2256402313
 C          4.8718817702        2.2629553014       -1.4998641314
 C          4.1145895203        1.9017970407       -2.6043063513
 C          2.8922999205        1.2688720803       -2.4411329210
 C          2.4165257506        0.9893458907       -1.1685813308
 H          1.4653422408        0.5002227405       -1.0232595506
 H          2.2966264206        0.9835096897       -3.2934774608
 H          4.4772906702        2.1149858504       -3.5974759314
 H          5.8215912600        2.7570069917       -1.6273332717
 H          4.9570669602        2.2475593224        0.6626385286
 H          4.0550476313       -0.7752259174        1.7395595499
 H          4.2304512417       -2.2117568882       -0.1482781495
 H          3.0545967022       -3.7455135593       -1.6847695587
 H          0.6091341223       -3.9383148201       -1.6196558786
 H         -1.4126688179       -3.2213895197        0.9571680611
 C         -1.7804736979       -3.2130107607       -1.1526336889
 C         -1.9991992174       -4.6919368108       -1.2554669582
 C         -3.1648430977       -3.7749453011       -1.0420632286
 H         -3.8543321078       -3.6143700617       -1.8572481886
 H         -3.6298311277       -3.7518906309       -0.0668401986
 H         -1.8925809073       -5.1636532712       -2.2206903380
 H         -1.6806017072       -5.3042362104       -0.4253836079
 H         -1.5332008582       -2.6657199810       -2.0551246191
