  62
        -98.94679949
 C         -1.1689729210       -1.1371866897       -0.1886665882
 C         -2.0410697409       -0.8687074992        0.9000580418
 C         -2.8645530505        0.3415067711        0.7974440715
 C         -2.7427237603        1.1247307908       -0.2893892387
 C         -3.5810119099        2.3376128110       -0.5709619989
 C         -4.8399735801        1.9671534912       -1.3683819587
 C         -5.6191245404        0.7877659116       -0.7863587084
 H         -6.5001688205        0.6388246917       -1.4144347783
 H         -5.0116827007       -0.1165897986       -0.8669522682
 C         -6.0576282403        0.9739766521        0.6729684116
 H         -7.0987032504        0.6584549125        0.7691004118
 H         -6.0143391599        2.0300742822        0.9417340713
 C         -5.2500890405        0.1596578921        1.6853218218
 H         -5.7718887904        0.1963848625        2.6453886518
 H         -5.2178939908       -0.8867252380        1.3713512720
 C         -3.8117971503        0.6350378017        1.9265273715
 H         -3.8128737499        1.7010842217        2.1623322213
 H         -3.4248314804        0.0906866618        2.7928311916
 H         -4.5411940802        1.7094158508       -2.3870335887
 H         -5.4880556798        2.8441988614       -1.4166186189
 H         -3.8633342797        2.8069622213        0.3697408610
 H         -2.9890159997        3.0403175206       -1.1593552391
 O         -1.8647286704        0.8645826102       -1.2876770087
 C         -1.0551128308       -0.2597439700       -1.2673811084
 O         -0.3027374709       -0.3407608105       -2.2597316485
 H          1.5767146389       -1.0292602409       -1.3814036084
 C          1.9145563889       -1.4001282008       -0.4252169384
 C          1.0460031787       -2.1423464003        0.3627564019
 C          1.4898071486       -2.5842804901        1.6034745420
 C          2.7708588288       -2.2934166204        2.0415772618
 C          3.6314744189       -1.5468643109        1.2560771316
 C          3.1904448290       -1.0927282711        0.0203335015
 N          4.0390863092       -0.2712226516       -0.7616193188
 S          4.2234858598        1.2779505485       -0.1499253392
 O          4.8925451899        2.0371486980       -1.1811331095
 O          4.9012287998        1.1889641086        1.1183226108
 C          2.5679346400        1.9001188791        0.0929271207
 C          2.0122759702        2.7169618691       -0.8705359294
 C          0.7196918104        3.1817814395       -0.6920942194
 C          0.0021839203        2.8074734201        0.4328028907
 C          0.5648209001        1.9661937201        1.3796444509
 C          1.8627238999        1.5111124496        1.2147223609
 H          2.3351142698        0.8707083297        1.9416915110
 H         -0.0058078899        1.6586103405        2.2419679610
 H         -1.0038738496        3.1692225104        0.5745205907
 H          0.2740335905        3.8270783995       -1.4320672396
 H          2.6046052402        2.9838134986       -1.7312504295
 H          3.7237149892       -0.1984461117       -1.7200820688
 H          4.6215439791       -1.2839814912        1.5911033214
 H          3.1007335087       -2.6457514403        3.0070908619
 H          0.8158492385       -3.1451701698        2.2344165622
 C         -0.3604385314       -2.4226395800       -0.1060379179
 H         -0.8562478716       -3.0224357196        0.6688353923
 C         -0.3606373718       -3.2150370903       -1.3987122677
 C         -0.0351632723       -4.6768149604       -1.3536857174
 C         -1.4368312621       -4.2290338500       -1.6383307074
 H         -1.8237367122       -4.3422276701       -2.6399835973
 H         -2.1809808621       -4.3616278096       -0.8664515773
 H          0.5438362775       -5.1005180108       -2.1597723073
 H          0.1706664277       -5.1137814502       -0.3882931173
 H         -0.0157040217       -2.6488902606       -2.2539263479
 O         -2.1336813710       -1.6188320489        1.9076408420
