  62
        -98.93491323
 C         -2.3637183109       -1.1397235997       -0.0550958493
 C         -2.1220550505        0.1244935702       -0.6393599894
 C         -2.8458338303        1.2781598004       -0.0643266997
 C         -3.6713332005        1.0794928907        0.9791309303
 C         -4.5365249304        2.0845006910        1.6912794900
 C         -5.7903307502        2.4624759512        0.8847341898
 C         -5.5514279399        2.7021920910       -0.6038099702
 H         -5.1039807800        1.8088086709       -1.0431484800
 H         -6.5262368498        2.8435165212       -1.0778519403
 C         -4.6897256095        3.9176219608       -0.9367970602
 H         -4.6666891394        4.0112910106       -2.0254742402
 H         -5.1662248594        4.8151481109       -0.5361686404
 C         -3.2457394796        3.8709960805       -0.4334485000
 H         -2.6993599894        4.6750196503       -0.9354804500
 H         -3.1942123797        4.0833917506        0.6310241600
 C         -2.4991373399        2.5786092002       -0.7495143697
 H         -2.5670764798        2.3804809101       -1.8252361697
 H         -1.4313835799        2.7370811800       -0.5505643696
 H         -6.2329358900        3.3533054114        1.3332823996
 H         -6.5088922904        1.6446283614        0.9779149698
 H         -4.8524071006        1.6177193212        2.6269219300
 H         -3.9539243302        2.9658390709        1.9428937300
 O         -3.8664308509       -0.1563214092        1.5207926504
 C         -3.2280347611       -1.2770503194        1.0354945006
 O         -3.5095549515       -2.3302964793        1.6423270606
 H          0.4232216893       -0.8530529605       -1.1198818490
 C          0.6822237890       -1.6137451305       -0.3981108488
 C         -0.2899454613       -2.5116450802        0.0189612611
 C          0.0529979684       -3.4639657302        0.9714245813
 C          1.3355985683       -3.5129833705        1.4896707815
 C          2.3009772486       -2.6132783308        1.0733895415
 C          1.9635695389       -1.6520161608        0.1303866014
 N          2.9358026192       -0.7132770310       -0.2958382486
 S          3.4076653593        0.4195124390        0.8682049413
 O          3.8180118090       -0.2829710610        2.0569222215
 O          2.3751131996        1.4211259992        1.0424882011
 C          4.8272818096        1.1370699585        0.0654560815
 C          4.7040887500        2.3467446285       -0.5894264187
 C          5.8099181402        2.8728652081       -1.2390636886
 C          7.0115363201        2.1812795278       -1.2259642383
 C          7.1190731897        0.9668384279       -0.5644958382
 C          6.0178006295        0.4365479582        0.0878626017
 H          6.0560053891       -0.4989158817        0.6206203218
 H          8.0555448895        0.4329335777       -0.5557486080
 H          7.8698219503        2.5925118576       -1.7334746882
 H          5.7290681006        3.8174774981       -1.7525893587
 H          3.7516549101        2.8521927987       -0.5683450489
 H          2.5907844595       -0.1898275110       -1.0920853087
 H          3.2957477385       -2.6284652610        1.4864994217
 H          1.5859084080       -4.2587975605        2.2290391316
 H         -0.7009080619       -4.1555656500        1.3195503612
 C         -1.6974905212       -2.4264514699       -0.5219313591
 H         -2.2792191214       -3.2389303597       -0.0663771891
 C         -1.7259824310       -2.6032973901       -2.0275765591
 C         -1.5525500412       -3.9776517902       -2.5976197889
 C         -2.8892105111       -3.3028045299       -2.6606337392
 H         -3.2454342308       -2.9471841999       -3.6157752093
 H         -3.6731590313       -3.6597183596       -2.0083016093
 H         -0.9887885311       -4.0887526904       -3.5109599788
 H         -1.4300203415       -4.7943627101       -1.9023612388
 H         -1.2926593207       -1.7729122402       -2.5685705091
 O         -1.3445507603        0.3200822199       -1.6136661593
