  62
        -98.94064628
 C          2.2588956125        1.0691354394        0.3882239932
 C          2.5454176501        0.1613751843       -0.6609671103
 C          3.4630338643       -0.9366478167       -0.3215095808
 C          3.9151876252       -1.0758925508        0.9367938054
 C          4.8264603397       -2.1625360783        1.4392105956
 C          6.3171399170       -1.8879103550        1.1970956450
 C          6.7754456083       -2.0186938787       -0.2559833277
 H          7.8671811029       -2.0158991710       -0.2487958265
 H          6.4549532086       -2.9832116317       -0.6510583288
 C          6.2852935381       -0.8936860751       -1.1781977042
 H          5.9500916743       -0.0478171652       -0.5735121320
 H          7.1156653780       -0.5387672035       -1.7927050683
 C          5.1590912501       -1.2989521528       -2.1292501379
 H          5.5235733115       -2.0556328416       -2.8274534932
 H          4.8659815196       -0.4196213188       -2.7084976915
 C          3.9069673129       -1.8439115048       -1.4295356024
 H          3.0980874007       -1.8949976528       -2.1627214854
 H          4.0949654215       -2.8472987572       -1.0478450287
 H          6.5512995205       -0.8861982392        1.5647722564
 H          6.8815043759       -2.6032894420        1.7995965103
 H          4.6591621426       -2.2335324937        2.5161763553
 H          4.5504158868       -3.1134291907        0.9822590012
 O          3.5638501832       -0.2213699170        1.9341536493
 C          2.7594331706        0.8760830062        1.6796434433
 O          2.5604322592        1.6023033759        2.6741061182
 H         -0.0362298315        0.3998426899       -1.0677670652
 C         -0.6421253981        0.9328774886       -0.3493713189
 C         -0.0689903353        1.9574184421        0.3920259874
 C         -0.8577779882        2.6305502800        1.3168423481
 C         -2.1876140707        2.2871036780        1.4888078046
 C         -2.7567988441        1.2711554480        0.7420581273
 C         -1.9744768717        0.5868870295       -0.1791887006
 N         -2.5433282181       -0.4447228622       -0.9486561531
 S         -3.3550229658       -1.6655443293       -0.1280987957
 O         -2.8363808404       -1.8397894094        1.2096712578
 O         -3.2914950533       -2.8189151877       -0.9990510950
 C         -5.0369202175       -1.0835882711       -0.0635093464
 C         -5.6847432755       -0.9778803874        1.1516215424
 C         -6.9963401557       -0.5291872912        1.1747237067
 C         -7.6331572670       -0.1968951104       -0.0111550936
 C         -6.9692699631       -0.3115066347       -1.2236463099
 C         -5.6588401308       -0.7608235983       -1.2538945044
 H         -5.1085775017       -0.8680593758       -2.1737087544
 H         -7.4677082114       -0.0521327052       -2.1437364023
 H         -8.6530559053        0.1533137642        0.0097051753
 H         -7.5141313774       -0.4404468240        2.1162575299
 H         -5.1470114593       -1.2421016746        2.0484034769
 H         -1.8977829515       -0.8393524297       -1.6185865027
 H         -3.7912879175        0.9986892700        0.8730151231
 H         -2.7882495561        2.8163058856        2.2126754941
 H         -0.4167539229        3.4145943781        1.9149098785
 C          1.3865688044        2.3031191595        0.2112567329
 H          1.6710790145        2.9723320576        1.0383514448
 C          1.6735700473        3.0444294470       -1.0886964572
 C          0.6991694188        3.1588519268       -2.2187354558
 C          0.9930776816        4.3527843226       -1.3645355623
 H          1.5741006895        5.1618999951       -1.7802400758
 H          0.2289251114        4.6668646819       -0.6694321411
 H          1.0954974615        3.1241836522       -3.2221850709
 H         -0.2639977073        2.6847385739       -2.1164238022
 H          2.7203671420        2.9748383168       -1.3672141382
 O          2.0706961153        0.2381370152       -1.8241435546
