  62
        -98.92896547
 C          2.4294167160        1.2564074551        0.5842571188
 C          2.8655050879        0.7026046891       -0.6437607034
 C          3.8066611672       -0.4334913958       -0.5556961463
 C          4.1590962357       -0.9183449532        0.6480865414
 C          5.1201132747       -2.0206503200        1.0424922547
 C          5.6418462201       -3.0107544249        0.0046679489
 C          4.5852733120       -3.9592752354       -0.5613275185
 H          5.0425796004       -4.5408877563       -1.3646519088
 H          4.2869225766       -4.6564918957        0.2258248827
 C          3.3161633528       -3.2951114349       -1.0901076833
 H          2.6492942022       -4.0844037142       -1.4484363503
 H          2.7964381072       -2.7890462725       -0.2731898447
 C          3.5223596465       -2.3063815556       -2.2358438118
 H          4.0625523475       -2.7948744869       -3.0491483391
 H          2.5328606692       -2.0280753421       -2.6089338781
 C          4.2600306993       -1.0081099233       -1.8669833342
 H          4.0225173815       -0.2595934646       -2.6282683091
 H          5.3378431146       -1.1504702259       -1.8719599320
 H          6.1495698493       -2.4828764683       -0.7970791920
 H          6.3957919126       -3.6212475618        0.5091001214
 H          5.9777719927       -1.5150827557        1.5001920153
 H          4.6241788831       -2.5732994357        1.8470020221
 O          3.6677261526       -0.3838203947        1.8058351439
 C          2.7986970552        0.6890016218        1.8047296863
 O          2.4273950299        1.0426033469        2.9445637171
 O          2.5113698314        1.1233095502       -1.7718359040
 C          1.4712428500        2.4412566550        0.6642331532
 C          0.1482266530        2.0321854946        0.0641262039
 C         -0.2201523610        2.1662555192       -1.2691080495
 C         -1.4407140919        1.6852522238       -1.7130595983
 C         -2.3194645303        1.0554786483       -0.8516316500
 C         -1.9553310142        0.8935145619        0.4783009461
 C         -0.7383213674        1.3862236257        0.9218114316
 H         -0.4548656368        1.2455321675        1.9581173390
 N         -2.8333395272        0.2434638259        1.3664907273
 S         -3.3949439201       -1.2765007167        0.9187459679
 O         -3.7130941729       -1.9450168533        2.1620200863
 O         -2.4606475694       -1.9503071363        0.0462145900
 C         -4.9083890466       -0.9252611520        0.0485721395
 C         -5.0799069289       -1.3721363372       -1.2468590011
 C         -6.2693256764       -1.0896351912       -1.9007975710
 C         -7.2604617690       -0.3702863769       -1.2508417221
 C         -7.0735695427        0.0685882779        0.0516488183
 C         -5.8875540832       -0.2111368745        0.7112637257
 H         -5.7033440572        0.1071637315        1.7237222017
 H         -7.8468884834        0.6270620927        0.5539758557
 H         -8.1842263580       -0.1506754217       -1.7624429114
 H         -6.4164860209       -1.4308402100       -2.9129027296
 H         -4.2787743360       -1.9231292912       -1.7136186961
 H         -2.4947971889        0.2229644596        2.3182235256
 H         -3.2673882784        0.6780412690       -1.1986696939
 H         -1.7072112878        1.8002800210       -2.7527777674
 H          0.4556503986        2.6101258024       -1.9773003064
 H          1.2895911685        2.5604334165        1.7436274070
 C          2.1234363361        3.7499867421        0.2378755966
 C          2.4911357176        4.1552110951       -1.1566205707
 C          1.3805542206        4.8618005645       -0.4409400559
 H          1.5528081100        5.8720121627       -0.1005006136
 H          0.3661323012        4.6693033404       -0.7529070936
 H          3.4290749936        4.6777260363       -1.2837236337
 H          2.2709678636        3.4800464321       -1.9656084417
 H          2.8378577370        4.0552889435        0.9994960789
