  62
        -98.93430779
 C         -2.5313060406       -0.3637451443        0.5981626710
 C         -2.3548959642        0.2969995573       -0.6410305567
 C         -2.1955010342        1.7628682631       -0.5933311263
 C         -2.1535623377        2.3881281139        0.5966310842
 C         -2.0009137773        3.8517361173        0.9546765695
 C         -1.5814687340        4.8724644428       -0.0992019875
 C         -0.1426832444        4.7267058479       -0.5945655982
 H          0.0065919685        5.4318819321       -1.4154831734
 H          0.5322260879        5.0108402285        0.2168424326
 C          0.2688175721        3.3317840978       -1.0606034251
 H          0.2351614961        2.6271941226       -0.2261931556
 H          1.3141315222        3.3858456853       -1.3783784110
 C         -0.5371506511        2.7629485351       -2.2262621289
 H         -0.0553710870        1.8292894764       -2.5297658066
 H         -0.5013222083        3.4533951641       -3.0719539267
 C         -2.0087637371        2.4409974903       -1.9204614440
 H         -2.6310651776        3.3301345764       -1.9879209085
 H         -2.3602614897        1.7333996733       -2.6773107309
 H         -1.6683456545        5.8563083354        0.3702906577
 H         -2.2774119760        4.8593041136       -0.9328210047
 H         -1.2855871398        3.8781371797        1.7833268409
 H         -2.9669998940        4.1582820457        1.3714690031
 O         -2.3023644193        1.7049297948        1.7710144471
 C         -2.4639514159        0.3328209274        1.8040858077
 O         -2.5359274619       -0.1452824626        2.9564341582
 O         -2.3339094980       -0.2947402405       -1.7511997086
 C         -2.5946271544       -1.8798939530        0.6893104678
 C         -1.4692391461       -2.4575695562       -0.1366523534
 C         -1.6126078241       -3.4891016515       -1.0529802481
 C         -0.5166025636       -3.9356559775       -1.7732974269
 C          0.7284154413       -3.3587918421       -1.6103926465
 C          0.8794443150       -2.3160959743       -0.6999484648
 C         -0.2079074322       -1.9029243019        0.0471345688
 H         -0.0820076872       -1.1091878496        0.7699047155
 N          2.1120955537       -1.6546657408       -0.5694702916
 S          2.4281399539       -0.6349526811        0.7278533998
 O          2.3691172117       -1.3702315026        1.9745199690
 O          1.5954573937        0.5368567019        0.6335923760
 C          4.1163561496       -0.2004903879        0.3561115654
 C          5.1515938011       -0.8734866185        0.9764987463
 C          6.4574925978       -0.5394238121        0.6527783663
 C          6.7042834087        0.4546604133       -0.2820041118
 C          5.6547114209        1.1231087336       -0.8950244300
 C          4.3472428274        0.7941617104       -0.5751482243
 H          3.4980058263        1.2896156792       -1.0169195888
 H          5.8497050227        1.8979676159       -1.6187296525
 H          7.7211068632        0.7126468107       -0.5324265531
 H          7.2753853893       -1.0543142626        1.1303895420
 H          4.9111649113       -1.6318803863        1.7041614652
 H          2.9105934694       -2.2199368175       -0.8200041751
 H          1.5735844130       -3.6950301874       -2.1908240020
 H         -0.6387781516       -4.7398010672       -2.4831675457
 H         -2.5814470545       -3.9304567587       -1.2198817525
 H         -2.3747708480       -2.1039784465        1.7478439052
 C         -3.9553544218       -2.4905933212        0.3919908068
 C         -5.2088569827       -1.6762392795        0.5063476416
 C         -4.7392563238       -2.1439743010       -0.8366371881
 H         -5.2956852160       -2.9302569390       -1.3257163322
 H         -4.3069286379       -1.4236169880       -1.5119879288
 H         -6.0825788263       -2.1388754391        0.9406703020
 H         -5.1013702232       -0.6288350090        0.7501879154
 H         -4.0217615054       -3.5175546597        0.7385917484
