  62
        -98.94073388
 C         -1.8710321663       -1.1723474134       -0.0905207222
 C         -1.2232969749       -2.0655180281       -0.9795595670
 C         -0.1207711205       -2.8559849703       -0.4173167910
 C          0.1824407778       -2.7255372352        0.8866293317
 C          1.3083210008       -3.4316079209        1.5837270527
 C          2.5962526349       -2.5968082876        1.5643895290
 C          2.9734586371       -2.0618835659        0.1828881918
 H          2.2374788748       -1.3213041576       -0.1390799341
 H          3.9238510594       -1.5325751047        0.2868758988
 C          3.1026798929       -3.1348587780       -0.9069329159
 H          4.0019725114       -2.9302142103       -1.4916565651
 H          3.2256652700       -4.1190456054       -0.4521957338
 C          1.9321913429       -3.1691845535       -1.8920931588
 H          2.2306116566       -3.7674875088       -2.7576756462
 H          1.7302287616       -2.1545613476       -2.2483238804
 C          0.6254944112       -3.7652082772       -1.3510576186
 H         -0.0409436705       -3.9344230906       -2.2021624954
 H          0.8279510439       -4.7282575860       -0.8766634734
 H          3.4101761617       -3.2148025556        1.9478163374
 H          2.4704326733       -1.7427975063        2.2336258039
 H          1.4788812768       -4.3923416963        1.1017335968
 H          1.0144954422       -3.6027184172        2.6207656280
 O         -0.4942829463       -1.8986840381        1.7216336958
 C         -1.5070368183       -1.0678260239        1.2526385538
 O         -1.9778504242       -0.3113079605        2.1189480234
 O         -1.5558948563       -2.1934430465       -2.1894887920
 C         -2.9273602187       -0.2308398317       -0.6609634020
 C         -2.4256447603        1.1722706351       -0.4167570563
 C         -2.9210696483        2.1145816605        0.4748266240
 C         -2.2778767759        3.3306186521        0.6435936629
 C         -1.1119004589        3.6266362206       -0.0357057792
 C         -0.5958872684        2.6891980072       -0.9235752059
 C         -1.2702996559        1.4978862752       -1.1270767036
 H         -0.8558343615        0.7801250044       -1.8211457903
 N          0.6104582081        2.9228746106       -1.6154095266
 S          1.8529674358        1.8112636510       -1.4535377987
 O          2.9908026175        2.4380953790       -2.0897620403
 O          1.4471771477        0.5350629644       -1.9805518600
 C          2.1431588583        1.6911778983        0.3010931812
 C          1.2527343566        0.9662650849        1.0664691424
 C          1.4372623613        0.9031574203        2.4379894915
 C          2.5121676930        1.5593417584        3.0181093812
 C          3.4014482950        2.2814256299        2.2359255470
 C          3.2143528696        2.3557796837        0.8648466529
 H          3.8799316678        2.9043712311        0.2181772977
 H          4.2370697271        2.7882028622        2.6911752878
 H          2.6553033113        1.5051670682        4.0858460583
 H          0.7296292323        0.3453159469        3.0322490695
 H          0.4280093040        0.4608079434        0.5886212917
 H          0.9785041395        3.8553569912       -1.4865799786
 H         -0.6010247631        4.5643958466        0.1217402393
 H         -2.6836119621        4.0490740397        1.3395399682
 H         -3.7931603071        1.9104484973        1.0682528033
 H         -2.8693192605       -0.3943384968       -1.7501566926
 C         -4.3258921817       -0.6747537279       -0.2659157532
 C         -4.9843091330       -0.4405865677        1.0581823612
 C         -5.5151936626        0.2331519337       -0.1726844033
 H         -6.4514072912       -0.1211666402       -0.5782464546
 H         -5.3608316601        1.2922200376       -0.2999248109
 H         -5.5567519791       -1.2561530222        1.4770652357
 H         -4.4473643433        0.1240895990        1.8018849772
 H         -4.5159613573       -1.6519734405       -0.7056007814
