  62
        -98.94627336
 C          1.5373816697        1.4759845941       -0.0610114665
 C          1.4945374948        0.1064526328        0.2970568504
 C          2.7792290707       -0.4852312736        0.6917883721
 C          3.8855910250        0.2789964503        0.7281470673
 C          5.2627916142       -0.1787016509        1.1260971878
 C          6.0505660950       -0.8457653844       -0.0099980525
 C          5.5732622509       -2.2454737195       -0.3998763980
 H          6.3418490147       -2.6768128377       -1.0444519635
 H          5.5111231394       -2.8682352161        0.4930182625
 C          4.2314273196       -2.2729623334       -1.1452902722
 H          4.0058631537       -1.2735442731       -1.5244675241
 H          4.3111942144       -2.9329476706       -2.0121597236
 C          3.0498371470       -2.7627746052       -0.3077454349
 H          3.2029088389       -3.8102062254       -0.0387277004
 H          2.1469005593       -2.6957519489       -0.9190778776
 C          2.8097583338       -1.9565885643        0.9750712147
 H          1.8321669370       -2.2326541599        1.3776788740
 H          3.5753152751       -2.1878581471        1.7151870397
 H          7.0914361613       -0.9174696070        0.3142428653
 H          6.0205971394       -0.1932122304       -0.8857456168
 H          5.1915870790       -0.8633345200        1.9717243396
 H          5.8074330655        0.7125810504        1.4451381238
 O          3.8738891061        1.6034757375        0.4160598443
 C          2.7090628772        2.2283248362       -0.0030762605
 O          2.8436656722        3.4383237849       -0.2790040256
 O          0.4451348265       -0.5840377249        0.2894895330
 C          0.2656899959        2.1604326712       -0.5292231161
 C         -0.8170901356        1.9681721659        0.5033977316
 C         -0.5686667398        2.3634050323        1.8159609053
 C         -1.5179515565        2.1768845723        2.8012785650
 C         -2.7302648292        1.5785929341        2.5032951780
 C         -2.9912097143        1.1904312044        1.1953446856
 C         -2.0442605843        1.4010919427        0.2019491666
 H         -2.2833153292        1.1077761928       -0.8055551034
 N         -4.2135842289        0.5947328557        0.8584721339
 S         -4.3163588974       -0.5302062688       -0.3698597127
 O         -4.2727445001        0.1303981443       -1.6512242056
 O         -5.5419435350       -1.2474142994       -0.0822184232
 C         -2.9301197723       -1.6383996328       -0.1975999711
 C         -2.7040684810       -2.2337403971        1.0263398125
 C         -1.6568956600       -3.1306220971        1.1504064075
 C         -0.8619719245       -3.4214625696        0.0538040077
 C         -1.1041375734       -2.8178649552       -1.1684977105
 C         -2.1461969422       -1.9155678129       -1.2972680577
 H         -2.3621024051       -1.4159503006       -2.2289457049
 H         -0.4790159425       -3.0388537270       -2.0196743204
 H         -0.0426616208       -4.1163208798        0.1538116368
 H         -1.4591625602       -3.5956922426        2.1032226547
 H         -3.3412917057       -1.9935905406        1.8623165738
 H         -4.8110920388        0.3625882937        1.6374738217
 H         -3.4679629226        1.4175231128        3.2744789338
 H         -1.3099485980        2.4881988671        3.8139967093
 H          0.3867170847        2.8128709241        2.0523236538
 H          0.4965559847        3.2331764229       -0.5991486774
 C         -0.1157971808        1.6494499779       -1.9029206155
 C         -0.9459766663        2.4955805634       -2.8190987143
 C          0.5055991940        2.2695203963       -3.1163536197
 H          0.7701524470        1.6301499332       -3.9452767172
 H          1.1946849134        3.0866564291       -2.9584582524
 H         -1.6856416333        2.0123091754       -3.4400825743
 H         -1.2447175752        3.4702902753       -2.4636365347
 H         -0.2745376208        0.5765804518       -1.9170098007
