  62
        -98.94438438
 C          2.3420453696        1.1396590028        0.2527015622
 C          2.3440191164       -0.1175241019       -0.3993103255
 C          3.3045220215       -1.1018065003        0.1175245362
 C          4.0845458826       -0.7941735088        1.1691143267
 C          5.0918265086       -1.7003540251        1.8233945756
 C          6.4589504205       -1.7227877301        1.1259190364
 C          6.4956258296       -2.4634124947       -0.2114608588
 H          7.5466168439       -2.5897412670       -0.4787052669
 H          6.0697132697       -3.4593672949       -0.0858245557
 C          5.7794656613       -1.7363469248       -1.3581218845
 H          5.6317565861       -0.6880032692       -1.0890396999
 H          6.4100261099       -1.7524661071       -2.2498837415
 C          4.4302563114       -2.3408216351       -1.7473982890
 H          3.9955385361       -1.7279357488       -2.5411602733
 H          4.5794009525       -3.3477283580       -2.1437222105
 C          3.4167398354       -2.4144897983       -0.5977081132
 H          3.6948509308       -3.2050369624        0.0991517877
 H          2.4347766201       -2.6496889467       -1.0167256067
 H          6.7941763730       -0.6932240894        0.9816102423
 H          7.1624093468       -2.2094760620        1.8053399063
 H          5.2301279859       -1.3266511274        2.8402101571
 H          4.6920787645       -2.7134482653        1.8773299944
 O          4.0277316553        0.4135292055        1.7903781832
 C          3.1700596810        1.4049547098        1.3468680976
 O          3.2345217934        2.4656223609        1.9996910151
 O          1.5950474363       -0.4166803854       -1.3669385895
 C          1.3982314435        2.2556060338       -0.1703681825
 C         -0.0040047998        1.8442531047        0.2071801172
 C         -0.4473032223        2.0569079286        1.5096411672
 C         -1.6987025060        1.6259943182        1.9077330365
 C         -2.5296530101        0.9637421763        1.0201949122
 C         -2.0888591025        0.7310494566       -0.2748803704
 C         -0.8414282733        1.1874307689       -0.6803804965
 H         -0.5064819922        0.9872734280       -1.6856271658
 N         -2.9179646587        0.0426407925       -1.1783478500
 S         -3.6092775826       -1.3985153908       -0.6625612427
 O         -2.8090990975       -2.0490939022        0.3493544679
 O         -3.8598189502       -2.1534854276       -1.8713086150
 C         -5.1709501116       -0.8889195469        0.0277666526
 C         -6.0107398241       -0.1209738329       -0.7551305409
 C         -7.2333918470        0.2743258931       -0.2365633422
 C         -7.5953648942       -0.1048157987        1.0476054443
 C         -6.7429437548       -0.8789562714        1.8196869386
 C         -5.5179028223       -1.2769510800        1.3069955151
 H         -4.8200337096       -1.8739012939        1.8726323868
 H         -7.0256737081       -1.1734296903        2.8176486420
 H         -8.5473775105        0.2044898486        1.4492201209
 H         -7.8990812972        0.8762518557       -0.8339287695
 H         -5.6932006441        0.1496595672       -1.7481471396
 H         -2.4965921082       -0.0784796643       -2.0887106886
 H         -3.5014589836        0.6131745191        1.3272412160
 H         -2.0304886122        1.8022512254        2.9197069898
 H          0.2121513488        2.5510801490        2.2097990868
 H          1.6719966781        3.1267261412        0.4392375117
 C          1.5604302078        2.6154252500       -1.6323968669
 C          0.9707748886        3.8962566792       -2.1391107954
 C          2.4568979297        3.7546592443       -2.0096037978
 H          3.0483020011        3.6677796838       -2.9088502928
 H          2.9541946778        4.2850127596       -1.2105597083
 H          0.5398846255        3.9107135243       -3.1285134871
 H          0.4576696642        4.5230524560       -1.4256424744
 H          1.5529319807        1.7569726013       -2.2920896211
