  62
        -98.93713786
 C          2.4745708537        0.9919254148        0.4568205746
 C          2.5549690071       -0.1691724994       -0.3452298355
 C          3.7128274932       -1.0513596331       -0.1078541010
 C          4.6163688294       -0.7204781949        0.8335145739
 C          5.8581600999       -1.4387797932        1.3195232799
 C          6.4642952340       -2.5853389000        0.5143859507
 C          7.0617545089       -2.1766403387       -0.8314887624
 H          7.3754162371       -3.0826077286       -1.3547272083
 H          7.9543100739       -1.5734605874       -0.6469488131
 C          6.1412955368       -1.3697025689       -1.7437792586
 H          6.6917874454       -1.1485153360       -2.6623146775
 H          5.9048241447       -0.4130070312       -1.2734431090
 C          4.8391707124       -2.0639994409       -2.1383078418
 H          5.0604928513       -3.0404047662       -2.5735646296
 H          4.3626608105       -1.4540210831       -2.9104531590
 C          3.8178004392       -2.2524286157       -1.0028694569
 H          4.0314243603       -3.1465754744       -0.4222444644
 H          2.8301115461       -2.3829231939       -1.4547296926
 H          5.7356035788       -3.3795194607        0.3819231109
 H          7.2741430304       -2.9973190984        1.1227101967
 H          6.6153002716       -0.6606515419        1.4591543047
 H          5.6125309762       -1.8113839162        2.3202308076
 O          4.4875561419        0.4096895951        1.5904459075
 C          3.4313323823        1.2864403928        1.4256741859
 O          3.4545434692        2.2721901045        2.1905242808
 H         -0.9227257809        1.7161665700       -1.3219859483
 C         -1.0265877673        1.2178999966       -0.3708277527
 C          0.0140986083        1.2451200743        0.5425304783
 C         -0.1565861438        0.5968074675        1.7634873934
 C         -1.3305964442       -0.0707357977        2.0516385806
 C         -2.3616203943       -0.1105759157        1.1284425728
 C         -2.2066408128        0.5393687220       -0.0871757986
 N         -3.2410613065        0.4934239433       -1.0339582236
 S         -4.8198377559        0.7692694623       -0.5470394535
 O         -5.5087300643        1.2084110238       -1.7409265659
 O         -4.8764168481        1.6590622058        0.5895431904
 C         -5.4227005458       -0.8432017274       -0.0919076411
 C         -5.3028237181       -1.8682557400       -1.0096507709
 C         -5.7805209619       -3.1251370143       -0.6748290955
 C         -6.3698205827       -3.3341117827        0.5632628083
 C         -6.4857641494       -2.2938482348        1.4723616423
 C         -6.0089633720       -1.0342977856        1.1438794199
 H         -6.0726976429       -0.1974987615        1.8212646441
 H         -6.9442850249       -2.4581510494        2.4342903114
 H         -6.7408571364       -4.3135790667        0.8209314379
 H         -5.6915942349       -3.9367225686       -1.3789803595
 H         -4.8410650165       -1.6658208615       -1.9616283708
 H         -3.0313399260        0.9656897023       -1.9009132989
 H         -3.2783167815       -0.6341160721        1.3449632956
 H         -1.4453377813       -0.5694160700        3.0022239115
 H          0.6506703801        0.6245821984        2.4833454869
 C          1.3180750734        1.9601822671        0.2834476958
 H          1.4437890195        2.7247657843        1.0639226470
 C          1.3958625668        2.6320896021       -1.0712314096
 C          0.7644258911        3.9747281128       -1.2817422945
 C          2.2567541749        3.8478449520       -1.2274669311
 H          2.8188023838        3.9683246816       -2.1414407693
 H          2.7713742880        4.2077838339       -0.3483247291
 H          0.2623271845        4.4283988553       -0.4403584655
 H          0.3038860630        4.1870632193       -2.2351298252
 H          1.3810823876        1.9232976514       -1.8912898311
 O          1.6995674273       -0.4656996627       -1.2195072257
