  62
        -98.93744660
 C         -1.7636973022       -0.3852668481       -0.5172862385
 C         -2.7921950326       -1.2249560870       -0.0287278906
 C         -4.1656011941       -0.7212255181       -0.1774523333
 C         -4.3639841900        0.4733422851       -0.7642912508
 C         -5.6933336192        1.1554996257       -0.9223826886
 C         -6.1260677446        1.7855458629        0.4169707597
 C         -7.3798150378        1.1619441149        1.0306749588
 H         -7.4612550831        1.5323450606        2.0548139072
 H         -8.2560957897        1.5144823614        0.4825724203
 C         -7.4237402130       -0.3690796284        1.0488775962
 H         -8.2221065544       -0.6559033097        1.7366740972
 H         -7.7137701512       -0.7396726678        0.0645872610
 C         -6.1289165512       -1.0722172374        1.4761196624
 H         -5.5200180775       -0.4133543885        2.0954613977
 H         -6.3978004007       -1.9310084253        2.0944923468
 C         -5.2763945140       -1.6095774549        0.3113433638
 H         -5.9280955888       -1.8730651971       -0.5262767415
 H         -4.7763410285       -2.5258972169        0.6388157083
 H         -5.2941651189        1.7011722454        1.1193061934
 H         -6.3088442328        2.8518052768        0.2751707048
 H         -5.5734850252        1.9266242889       -1.6836388872
 H         -6.4357915714        0.4386549352       -1.2662034080
 O         -3.3486751281        1.2503661749       -1.2242729297
 C         -2.0255595975        0.8472881410       -1.1143391206
 O         -1.2015241598        1.6582280145       -1.5773251071
 O         -2.5706614448       -2.3430184576        0.5097887670
 C         -0.3219411629       -0.8486532574       -0.4040641143
 C          0.4854436058        0.1581062387        0.3755326893
 C          0.0048639754        0.5815170788        1.6133446040
 C          0.6888879998        1.5238743393        2.3542525536
 C          1.8769674905        2.0563651839        1.8838794738
 C          2.3716082717        1.6333189148        0.6572293120
 C          1.6828550211        0.6813628711       -0.0850165699
 H          2.0842053480        0.3849820503       -1.0393385752
 N          3.5706518954        2.1593262494        0.1553593507
 S          4.6505971719        1.1689066487       -0.6411266970
 O          5.9247762494        1.8422833382       -0.5048028414
 O          4.2154678925        0.9192092368       -1.9917624750
 C          4.6634868945       -0.3532584720        0.2908512160
 C          4.9107862622       -0.2935605169        1.6484917524
 C          4.9118434803       -1.4685366653        2.3818796219
 C          4.6700534060       -2.6785698078        1.7491566607
 C          4.4325387084       -2.7228597705        0.3845433601
 C          4.4273817696       -1.5495491191       -0.3531766125
 H          4.2411994967       -1.5382087663       -1.4145537030
 H          4.2491528659       -3.6644720775       -0.1082016584
 H          4.6682971220       -3.5922839653        2.3223187911
 H          5.0990345645       -1.4378241816        3.4431300251
 H          5.1052519168        0.6598597984        2.1117217938
 H          4.0365493528        2.8164388982        0.7629587007
 H          2.4094551567        2.8014653522        2.4551317217
 H          0.2975660083        1.8475108506        3.3069230982
 H         -0.9248776070        0.1673901721        1.9789459658
 H         -0.3606781305       -1.7831384497        0.1752483270
 C          0.2341577548       -1.1521494611       -1.7787463560
 C          1.2966411197       -2.1936949495       -1.9531949629
 C         -0.1015162484       -2.4649915297       -2.4187065993
 H         -0.3000287347       -2.4856519235       -3.4798604536
 H         -0.7080666212       -3.1524167126       -1.8474004965
 H          2.0595871028       -2.0244155918       -2.6983472204
 H          1.6439867248       -2.7033814833       -1.0674782274
 H          0.2643136693       -0.2779541835       -2.4202969481
