  62
        -98.94874677
 C         -1.0805103295       -1.7026842307        0.1277384492
 C         -1.6658637100       -0.8927720009        1.1291387991
 C         -2.8302891104       -0.0973762415        0.7191766190
 C         -3.2663340203       -0.1781249518       -0.5511176410
 C         -4.4309036006        0.5887257476       -1.1066459111
 C         -3.9927648713        1.9258618778       -1.7183858411
 C         -3.0994856417        2.7683668383       -0.8073501011
 H         -2.1291503715        2.2765369288       -0.7015920010
 H         -2.9091513822        3.7109933084       -1.3264004711
 C         -3.6936307619        3.0603674281        0.5776332789
 H         -3.5173718925        4.1118920382        0.8145507488
 H         -4.7738069019        2.9092111575        0.5556522988
 C         -3.0875824716        2.2412149084        1.7183182689
 H         -3.4010054118        2.6923786483        2.6637228389
 H         -1.9977627216        2.3098150090        1.6689269690
 C         -3.4850454908        0.7604625282        1.7654591890
 H         -3.1565665707        0.3580460084        2.7284798290
 H         -4.5721427208        0.6717772677        1.7096569689
 H         -4.8888118616        2.4937836673       -1.9779535812
 H         -3.4388572711        1.7236356180       -2.6383172711
 H         -5.1546801808        0.7623387273       -0.3120988511
 H         -4.8981061803       -0.0178439927       -1.8848112010
 O         -2.6781148198       -0.9646141015       -1.4879527309
 C         -1.5623963195       -1.7317671709       -1.1813511208
 O         -1.1117705191       -2.3877293308       -2.1399337408
 O         -1.2370768900       -0.8410399306        2.3141878391
 C          0.1353401209       -2.5338861600        0.4835290093
 C          1.3641148207       -2.0994387094       -0.2809364007
 C          2.4520150811       -2.9447808489       -0.4737330506
 C          3.5785794809       -2.4959875784       -1.1399448406
 C          3.6569138803       -1.1983214483       -1.6136669407
 C          2.5750020798       -0.3459589789       -1.4276003807
 C          1.4463172800       -0.8033308494       -0.7659390608
 H          0.6038302897       -0.1399719198       -0.6583417408
 N          2.5997052592        0.9721448211       -1.9013258308
 S          1.7448668786        2.1804908107       -1.1315052309
 O          0.3297812986        2.0296639100       -1.3587459909
 O          2.3388977080        3.4018093210       -1.6325212809
 C          2.1292094186        1.9918767110        0.5991218891
 C          1.1659843688        1.5517150705        1.4819104291
 C          1.5044460288        1.3615178108        2.8119154691
 C          2.7978319887        1.6215022214        3.2362076192
 C          3.7542679985        2.0774163019        2.3405903592
 C          3.4212523084        2.2604879516        1.0087738692
 H          4.1345926783        2.6203972320        0.2853460692
 H          4.7576504384        2.2847172224        2.6761118892
 H          3.0596604287        1.4695998216        4.2714203792
 H          0.7523880290        0.9944136104        3.4925095891
 H          0.1674054889        1.3516356300        1.1259263591
 H          3.4857034991        1.2909311115       -2.2625397308
 H          4.5371064801       -0.8504368579       -2.1318001106
 H          4.4125856213       -3.1649151380       -1.2879058006
 H          2.4125810216       -3.9572542889       -0.1061153206
 H          0.3210886507       -2.3322599799        1.5505032393
 C         -0.1596471284       -4.0125138302        0.3161804893
 C          0.3963351321       -5.0185300099        1.2782162894
 C         -1.0637428881       -4.6845147406        1.3049642993
 H         -1.7723490977       -5.4143622310        0.9433570293
 H         -1.4362066184       -4.0827750607        2.1213337193
 H          0.6916687726       -5.9849872997        0.8981527894
 H          1.0085586519       -4.6539173595        2.0893065594
 H         -0.2590894482       -4.2988098203       -0.7247426407
