  62
        -98.93895834
 C          1.0711828264        1.9086528730       -0.6606509002
 C          0.3097768084        2.2677817042        0.4783572581
 C         -1.1588630990        2.3568200546        0.2948722227
 C         -1.6795122328        2.1921564055       -0.9337894887
 C         -3.1231202507        2.2022238157       -1.3648724664
 C         -3.8699208205        0.9169536545       -0.9850201885
 C         -3.6965367440        0.4851065301        0.4679662943
 H         -4.2524154967       -0.4468081814        0.6062761416
 H         -2.6477304004        0.2562081211        0.6645629438
 C         -4.1952622304        1.4866532399        1.5081899981
 H         -5.2390641504        1.7340241346        1.3017765191
 H         -4.1571124421        0.9806150980        2.4763494636
 C         -3.3921129634        2.7864580389        1.6299076200
 H         -3.6883329198        3.5141071199        0.8779783198
 H         -3.6355601940        3.2281673060        2.6004878962
 C         -1.8792957085        2.5961470260        1.5982743419
 H         -1.4008111394        3.4793362885        2.0381511572
 H         -1.6034517026        1.7608884730        2.2544698114
 H         -3.5071377285        0.1052140052       -1.6206564460
 H         -4.9309119323        1.0649278171       -1.1955106933
 H         -3.6334264826        3.0717875921       -0.9618277571
 H         -3.1192754110        2.2926787052       -2.4535554422
 O         -0.8908852510        1.9557245771       -2.0239655730
 C          0.4698286432        1.7531311096       -1.9112720139
 O          1.0344449706        1.4562850583       -2.9838516843
 H          1.2731361196       -0.0031804015        1.1758732064
 C          1.9368524968       -0.5682737997        0.5399347891
 C          2.7043826874        0.0830667731       -0.4162454487
 C          3.5681600636       -0.6694399373       -1.2028805598
 C          3.6527009825       -2.0410657991       -1.0390243920
 C          2.8561981417       -2.6901214014       -0.1128257861
 C          1.9858310749       -1.9475469194        0.6775646970
 N          1.1438744264       -2.5748293415        1.6136028577
 S         -0.4906618252       -2.2061434979        1.6237866247
 O         -0.6976793570       -0.8521378148        2.0614405247
 O         -1.0842386735       -3.2421707981        2.4405040750
 C         -1.0127310259       -2.4066475638       -0.0689152362
 C         -0.8338103899       -1.3635690197       -0.9541982194
 C         -1.1795283298       -1.5415574599       -2.2842529192
 C         -1.7033910552       -2.7549187524       -2.7030346616
 C         -1.8844828692       -3.7924689992       -1.8003075055
 C         -1.5302560595       -3.6223042498       -0.4717739793
 H         -1.6568960604       -4.3998203289        0.2641233278
 H         -2.2964967154       -4.7325791520       -2.1299213209
 H         -1.9725167310       -2.8885770216       -3.7389234092
 H         -1.0259423738       -0.7291534771       -2.9784895151
 H         -0.4304794292       -0.4277648508       -0.6008311236
 H          1.2685782098       -3.5756983743        1.6724998226
 H          2.9029490990       -3.7627264808       -0.0018723673
 H          4.3301010764       -2.6138244473       -1.6535960464
 H          4.1614001509       -0.1749403894       -1.9577264172
 C          2.5535818172        1.5718538478       -0.6180747451
 H          2.9391669665        1.8072933438       -1.6232745841
 C          3.3548942732        2.3947538001        0.3780664336
 C          3.8697406569        1.8442610684        1.6703011174
 C          4.8223275693        2.1344602367        0.5517636751
 H          5.4888578652        2.9783609733        0.6446904360
 H          5.2447751249        1.2913186822        0.0263945291
 H          3.8559269353        2.4956686214        2.5307115265
 H          3.6540087311        0.8139151736        1.9079050008
 H          3.0388125205        3.4323691995        0.3916989911
 O          0.8017007721        2.5015204677        1.6113283284
