  62
        -98.93669096
 C          2.1032526702        1.2964835299       -0.1531413703
 C          2.5419506403        0.1533574699       -0.8622664101
 C          3.9330548304       -0.2617452098       -0.6171811501
 C          4.6959197903        0.4584834005        0.2250158197
 C          6.1024572704        0.1227035708        0.6324482597
 C          6.0914316306       -1.0066784390        1.6824199299
 C          6.7270495409       -2.3139053290        1.2087535501
 H          7.8134624708       -2.2030443688        1.2146460801
 H          6.4707817510       -3.0853054389        1.9381377203
 C          6.3128892709       -2.7903330593       -0.1869455198
 H          6.6222127011       -3.8343334593       -0.2711271696
 H          6.8723329808       -2.2387939993       -0.9440709499
 C          4.8170573209       -2.6924260896       -0.5142097497
 H          4.5354567010       -3.5796857098       -1.0851501096
 H          4.2206055909       -2.7020449996        0.3984931903
 C          4.4257865806       -1.4695666398       -1.3650092999
 H          5.2654422405       -1.1868774798       -2.0061552200
 H          3.5940653106       -1.7511149901       -2.0179055999
 H          6.6185960106       -0.6758129388        2.5785284499
 H          5.0560419707       -1.1904610992        1.9771077400
 H          6.5436353302        1.0269658710        1.0521991596
 H          6.6781071504       -0.1727627092       -0.2418329002
 O          4.2396622701        1.5588638105        0.8783455696
 C          2.9366816501        1.9989855802        0.7169296295
 O          2.6451797599        3.0076440603        1.3902868194
 O          1.8140266704       -0.4884646304       -1.6643254200
 C          0.6785251101        1.7974933296       -0.3194119204
 C         -0.2812673497        0.7074118895        0.0901111899
 C         -0.2233758396        0.2291302798        1.3969718399
 C         -1.0629822194       -0.7835980703        1.8183644901
 C         -1.9803980593       -1.3434916006        0.9458864203
 C         -2.0516647795       -0.8684272309       -0.3561532198
 C         -1.2150652197        0.1600592992       -0.7740024300
 H         -1.2809366798        0.5116804490       -1.7912720601
 N         -2.9815192294       -1.4273524412       -1.2461099797
 S         -4.5318651693       -1.7312776014       -0.7039625596
 O         -4.5569627191       -2.9579415412        0.0531743706
 O         -5.3580278694       -1.7047873717       -1.8904225096
 C         -4.9248066695       -0.3554466313        0.3626655002
 C         -5.1957280294       -0.5732540111        1.6978759102
 C         -5.4669427596        0.5140012490        2.5132894801
 C         -5.4588354199        1.7941223689        1.9822093998
 C         -5.1876542699        1.9966845287        0.6374462698
 C         -4.9169192298        0.9135191086       -0.1822631200
 H         -4.7087909398        1.0373389385       -1.2327293400
 H         -5.1833784401        2.9935595087        0.2266764196
 H         -5.6659866700        2.6398027890        2.6188353697
 H         -5.6799310195        0.3593635791        3.5588075501
 H         -5.1902087792       -1.5846839210        2.0703791004
 H         -2.9750035995       -1.0179174613       -2.1680196198
 H         -2.6276691192       -2.1497228107        1.2504454004
 H         -1.0009062093       -1.1466292601        2.8331065202
 H          0.5000822403        0.6608159200        2.0756497998
 H          0.5681693199        2.6317144297        0.3875353995
 C          0.4601901799        2.3184810694       -1.7240548004
 C         -0.6335634103        3.3074312091       -1.9918805606
 C          0.7992248696        3.7453383194       -2.0283781807
 H          1.2456704396        3.9759156493       -2.9841052408
 H          1.1734251296        4.3508758896       -1.2157833108
 H         -1.1717558503        3.2439436389       -2.9257067205
 H         -1.2364728903        3.6216892292       -1.1536194406
 H          0.6853450700        1.5811191893       -2.4859838103
