  62
        -98.94512439
 C          1.9384605394        1.0273536609        0.0246590192
 C          2.5719645793        0.2192782408        0.9980879991
 C          3.1453019295       -1.0432440191        0.5163368089
 C          2.9908838297       -1.3824716588       -0.7768356112
 C          3.5621627098       -2.6157918486       -1.4129938314
 C          4.9606247499       -2.3494279284       -1.9880831912
 C          5.9087662297       -1.6556069886       -1.0101085809
 H          6.8721925898       -1.5476737584       -1.5126484508
 H          5.5364192196       -0.6489511686       -0.8072952807
 C          6.1052402496       -2.3994343488        0.3181782089
 H          7.1699025696       -2.4099740388        0.5603411990
 H          5.7864189597       -3.4370214288        0.2127664586
 C          5.3840317994       -1.7676176692        1.5099915890
 H          5.6291300993       -0.7040482792        1.5649030593
 H          5.7582840593       -2.2379703693        2.4231491189
 C          3.8567045594       -1.9101919493        1.5172895288
 H          3.5826469795       -2.9586515693        1.3800063385
 H          3.4972566493       -1.5893597295        2.4997964588
 H          4.8554527999       -1.7161339982       -2.8718693411
 H          5.3907628400       -3.3023133883       -2.3015628614
 H          2.8960660599       -2.9229942685       -2.2211493316
 H          3.6066449398       -3.4122550288       -0.6724323716
 O          2.3272960097       -0.6079952686       -1.6711218011
 C          1.7748509296        0.6076912412       -1.2961818809
 O          1.1844138897        1.2057979214       -2.2144442908
 O          2.6468938492        0.5369663105        2.2176756692
 C          1.3102720793        2.3409615208        0.4618855694
 C         -0.1882709407        2.1956490007        0.3660552992
 C         -1.0014201507        2.9898963108       -0.4301381707
 C         -2.3617884506        2.7418362708       -0.5084648909
 C         -2.9372516807        1.7022993506        0.1995356288
 C         -2.1321094807        0.9082854304        1.0057946387
 C         -0.7754064907        1.1639474405        1.0901633889
 H         -0.1497825808        0.5355519004        1.7131018989
 N         -2.7123715507       -0.1805266798        1.7078054684
 S         -2.9597920005       -1.5278253595        0.7212086980
 O         -3.1408174005       -2.6419828098        1.6270995478
 O         -1.9021505704       -1.6671271093       -0.2568989219
 C         -4.5017407204       -1.1571180695       -0.0829986620
 C         -4.5123044803       -0.8268395092       -1.4236191420
 C         -5.7223007202       -0.5179404191       -2.0257878520
 C         -6.8912538003       -0.5436566094       -1.2801786722
 C         -6.8627844405       -0.8788941897        0.0656081277
 C         -5.6570749705       -1.1892689697        0.6737888778
 H         -5.5862642506       -1.4608919300        1.7137557478
 H         -7.7740057405       -0.8983124399        0.6413164776
 H         -7.8303439403       -0.3009197893       -1.7518614522
 H         -5.7457485501       -0.2564941789       -3.0715042420
 H         -3.5766808602       -0.8141220390       -1.9602133419
 H         -2.1448381508       -0.4732846999        2.4928215784
 H         -3.9947532106        1.5034888105        0.1385157086
 H         -2.9810511406        3.3639486109       -1.1361862508
 H         -0.5674784207        3.7933951910       -1.0018767805
 H          1.5745504491        2.4505021406        1.5239712895
 C          1.8719978293        3.5156870210       -0.3073168902
 C          1.7872149891        4.8943669309        0.2745061701
 C          3.1088274592        4.1925108210        0.1999740701
 H          3.8382463992        4.5367960912       -0.5176396298
 H          3.5421502091        3.8168886708        1.1155916000
 H          1.6105836991        5.7251195710       -0.3914007998
 H          1.3229543990        4.9986479006        1.2433928800
 H          1.7691258394        3.4032681113       -1.3800855303
