  62
        -98.94419530
 C         -1.8632144171       -1.3598349540        0.5951026093
 C         -2.6301214629       -0.8330761929       -0.4736677493
 C         -3.2972347246        0.4487810992       -0.2052775474
 C         -3.1260807851        1.0646064679        0.9776479530
 C         -3.7307070278        2.3784297879        1.3914625529
 C         -2.9405564537        3.6008910375        0.9043481318
 C         -3.0604286346        3.8982098614       -0.5911627585
 H         -4.1143076109        3.9316934951       -0.8692023628
 H         -2.6522666162        4.8979312478       -0.7534164777
 C         -2.3173863636        2.9073605946       -1.4986427067
 H         -1.5904104215        2.3440003270       -0.9093676796
 H         -1.7594088581        3.4591488874       -2.2581215833
 C         -3.2208364790        1.9187881865       -2.2349493836
 H         -2.5868900527        1.2445721531       -2.8161092433
 H         -3.8685230488        2.4572109676       -2.9305055104
 C         -4.0989924775        1.0631594881       -1.3133303579
 H         -4.9129997636        1.6619403556       -0.9053135241
 H         -4.5255708371        0.2498852065       -1.9054990673
 H         -3.3100544635        4.4684601784        1.4559264598
 H         -1.8899058492        3.4596335961        1.1671839728
 H         -4.7591016240        2.4397025307        1.0346572256
 H         -3.7411473572        2.3863635196        2.4834763016
 O         -2.3592512549        0.5380818056        1.9697187143
 C         -1.7028690359       -0.6663457037        1.7978418549
 O         -1.0138481179       -1.0158514374        2.7791527891
 O         -2.7674722858       -1.3856873562       -1.5949008226
 C         -1.0825582878       -2.6612749302        0.4733097594
 C          0.1962265226       -2.3432670598       -0.2635238298
 C          0.3043383167       -2.3921740152       -1.6479749338
 C          1.4840455032       -2.0182570624       -2.2682138284
 C          2.5737903900       -1.5920685481       -1.5293804112
 C          2.4708107141       -1.5298824182       -0.1453278258
 C          1.2882441990       -1.9051340287        0.4752113885
 H          1.2002779728       -1.8404570445        1.5519319154
 N          3.5694646224       -1.1082787683        0.6280423436
 S          4.3371965030        0.3256184822        0.2428848859
 O          5.0392718327        0.1679303563       -1.0055142491
 O          5.1473259953        0.6394140773        1.3972800186
 C          3.0416063038        1.5371320980        0.0615807653
 C          2.5400217952        1.8229995615       -1.1921791201
 C          1.5235573655        2.7574255493       -1.3081701939
 C          1.0294994470        3.3869412141       -0.1760880311
 C          1.5375223649        3.0815495313        1.0772893070
 C          2.5508174521        2.1449508955        1.2000461351
 H          2.9808831520        1.8913313929        2.1558873229
 H          1.1495952008        3.5691164478        1.9577202302
 H          0.2462940828        4.1224316023       -0.2719915147
 H          1.1208976669        2.9927227626       -2.2801820313
 H          2.9595135317        1.3241626967       -2.0500671389
 H          3.3927664910       -1.1470494170        1.6216900010
 H          3.4992272200       -1.3044251824       -2.0014682061
 H          1.5576178647       -2.0613404445       -3.3443658085
 H         -0.5449986555       -2.6997713265       -2.2358777937
 H         -0.8125444838       -2.9448378953        1.4995902231
 C         -1.8768779235       -3.7924830834       -0.1418720838
 C         -1.3571677420       -5.1916132206       -0.0113302683
 C         -2.5722495026       -4.7684867064        0.7568346662
 H         -3.5349235273       -5.1516773284        0.4533498836
 H         -2.4775904092       -4.6252966720        1.8237194062
 H         -1.4830969285       -5.8685087252       -0.8422357756
 H         -0.4361414079       -5.3328293682        0.5344341018
 H         -2.3819357626       -3.5235713536       -1.0594244843
