  62
        -98.93131930
 C         -2.3127582405       -0.8204057775       -0.1681166186
 C         -3.5405957151       -0.9811518322        0.5139864585
 C         -4.6518944798       -0.1057164977        0.0982554672
 C         -4.4471153703        0.7799506626       -0.8934114258
 C         -5.4105758613        1.7795003126       -1.4822060893
 C         -6.8397044614        1.2852829176       -1.7544032566
 C         -7.8811368254        1.8825350942       -0.8063794082
 H         -7.6357469650        2.9332902925       -0.6384961853
 H         -8.8575744428        1.8503281535       -1.2948731717
 C         -8.0158710410        1.1745078408        0.5406305812
 H         -8.6774234917        1.7781159240        1.1664909054
 H         -8.5014505465        0.2072847944        0.3937875616
 C         -6.7037578947        0.9455259016        1.2934139671
 H         -6.9430426883        0.8242642533        2.3521272152
 H         -6.0586582924        1.8197593593        1.2122483951
 C         -5.9452570491       -0.3106603254        0.8390213741
 H         -5.6702537602       -0.9093697446        1.7129651656
 H         -6.6012706428       -0.9447618766        0.2357700653
 H         -6.8700066619        0.1976341449       -1.7147624987
 H         -7.1043934142        1.5786804238       -2.7715329176
 H         -4.9455471860        2.1027672106       -2.4162875292
 H         -5.4391813119        2.6564122626       -0.8305056911
 O         -3.2410067541        0.9066341114       -1.5170847071
 C         -2.1480288801        0.1288291316       -1.1755346379
 O         -1.1213350773        0.3711128563       -1.8370733142
 O         -3.7045373364       -1.8217523497        1.4397781952
 C         -1.1323032810       -1.6845549682        0.2412004907
 C         -0.0709545386       -0.7956524042        0.8412723276
 C         -0.3248409731       -0.1971900423        2.0730706469
 C          0.6014477774        0.6479653747        2.6526539117
 C          1.7983761102        0.9222249970        2.0136588553
 C          2.0601123449        0.3333378621        0.7846084287
 C          1.1336642677       -0.5303448667        0.2112626115
 H          1.3484155249       -0.9763344348       -0.7470600831
 N          3.2618816673        0.6282134856        0.1147016727
 S          4.6843296577        0.5919494615        1.0239398950
 O          4.7261806739       -0.6074400514        1.8312604602
 O          4.8030744484        1.8358960067        1.7426505333
 C          5.9108214389        0.5181137081       -0.2663085334
 C          6.3890769014       -0.7131878524       -0.6728594953
 C          7.3221542494       -0.7648479530       -1.6963926926
 C          7.7563885581        0.4087355287       -2.2942262889
 C          7.2671786038        1.6369819011       -1.8749458216
 C          6.3346955967        1.6959368111       -0.8515017927
 H          5.9331414564        2.6270887528       -0.4872655902
 H          7.6091128052        2.5470285868       -2.3409007817
 H          8.4828623445        0.3657337095       -3.0902753669
 H          7.7067332732       -1.7177420278       -2.0226904681
 H          6.0312556652       -1.5991576138       -0.1730273110
 H          3.3610051879        0.0925055422       -0.7368618284
 H          2.5317482076        1.5790962631        2.4530633229
 H          0.3919725676        1.1011392016        3.6102529681
 H         -1.2639373665       -0.4038619306        2.5682746274
 H         -1.5139152771       -2.3400309853        1.0365088021
 C         -0.6476914941       -2.5428474055       -0.9073027716
 C          0.2183679428       -3.7334938241       -0.6261969369
 C         -1.2004010716       -3.9258956501       -1.0682699784
 H         -1.3846440557       -4.2933583117       -2.0666179733
 H         -1.9234622800       -4.2615961711       -0.3395242245
 H          1.0087544829       -3.9736649478       -1.3210092371
 H          0.4622254226       -3.9385522585        0.4053574243
 H         -0.4597698062       -1.9754320410       -1.8112476254
