  62
        -98.93054946
 C          2.6909684668        0.3329409125       -0.2007380740
 C          2.0744274756        1.0723593071        0.8368434079
 C          1.2863845545        2.2532280722        0.4227123388
 C          1.2685729815        2.6186363638       -0.8698173057
 C          0.5083158231        3.7343964684       -1.5431376020
 C          0.3703763970        5.0677330542       -0.7948007180
 C         -1.0330844393        5.3143616168       -0.2368674028
 H         -1.1823650544        6.3913815892       -0.1323122245
 H         -1.7618051501        4.9514665604       -0.9645933371
 C         -1.3207125705        4.6754181453        1.1207085257
 H         -0.7700440414        5.2105270722        1.8974340767
 H         -2.3855128360        4.8029011958        1.3287684762
 C         -0.9747164637        3.1894766738        1.2269023545
 H         -1.2675001976        2.6516813867        0.3236683504
 H         -1.5569697699        2.7558190467        2.0434174079
 C          0.5111124415        2.9279764993        1.5199881932
 H          1.0110672456        3.8580183197        1.8042993141
 H          0.5995859902        2.2554163512        2.3788011808
 H          1.1135915002        5.1280834967       -0.0020885047
 H          0.5901997294        5.8658277830       -1.5060952968
 H          1.0302654272        3.8946888458       -2.4900203914
 H         -0.4818428510        3.3451113747       -1.7984126405
 O          1.9743774994        1.9394559418       -1.8204839706
 C          2.6255818187        0.7583705781       -1.5282482391
 O          3.1333693908        0.1939223197       -2.5203521327
 H          0.7106238483       -1.0506373181        0.7179478427
 C          0.9548639498       -1.8863222574        0.0798893168
 C          2.2580598024       -2.0668965414       -0.3612549489
 C          2.5413028440       -3.1612096584       -1.1691148907
 C          1.5362419242       -4.0380921558       -1.5400117644
 C          0.2294541975       -3.8237835704       -1.1408910367
 C         -0.0623796782       -2.7342348811       -0.3270374336
 N         -1.3739429157       -2.4661445592        0.0968891484
 S         -1.8191470053       -0.8384499557        0.2584770096
 O         -1.2698539250       -0.0591732417       -0.8284471107
 O         -1.5075200523       -0.4096671424        1.5967191003
 C         -3.5892942683       -0.9779764286        0.0806972649
 C         -4.3445899104       -1.3211899025        1.1862528076
 C         -5.7154366102       -1.4654892585        1.0426668541
 C         -6.3052533968       -1.2656007932       -0.1967340701
 C         -5.5350801749       -0.9185925164       -1.2966211924
 C         -4.1631134879       -0.7747273099       -1.1600214130
 H         -3.5246111365       -0.4986091691       -1.9841845688
 H         -5.9961376045       -0.7601049081       -2.2581896212
 H         -7.3722942564       -1.3780329943       -0.3058594201
 H         -6.3175528259       -1.7317877278        1.8962280800
 H         -3.8416726289       -1.4559977844        2.1296255562
 H         -2.0696280991       -2.9994585132       -0.4068291309
 H         -0.5595099687       -4.4878370592       -1.4596091074
 H          1.7685967237       -4.8832480773       -2.1700116537
 H          3.5491256512       -3.3060249308       -1.5295747817
 C          3.3117297198       -1.0429247310       -0.0109683373
 H          4.1099865304       -1.1214656445       -0.7673219072
 C          3.9465976144       -1.2758669271        1.3495573140
 C          3.3001993727       -2.0985830062        2.4189089089
 C          4.4995513180       -2.6274127642        1.6946757342
 H          5.4402517670       -2.6794129066        2.2212601984
 H          4.3414587492       -3.4267070938        0.9866869216
 H          3.4071650010       -1.7633450529        3.4390272275
 H          2.3366650916       -2.5369273171        2.2082426492
 H          4.5148934301       -0.4148546571        1.6837259535
 O          2.1520299913        0.7779565138        2.0578481444
