  62
        -98.94454491
 C         -1.7070970044       -1.0839486602        0.0007933853
 C         -2.9206224572       -1.0777258128        0.7404146000
 C         -4.0865901541       -0.4825372905        0.0808346757
 C         -3.9705678822       -0.0080477084       -1.1722929802
 C         -5.0720682684        0.5983144761       -1.9983047543
 C         -5.3114698157        2.0889635638       -1.7222679829
 C         -5.9849714829        2.4018031457       -0.3855084357
 H         -6.2891826188        3.4499311799       -0.4173901127
 H         -6.8910972552        1.8030713747       -0.2878045600
 C         -5.0878171580        2.1857183753        0.8414312950
 H         -4.0430319558        2.1349401040        0.5255162825
 H         -5.1757031156        3.0432018270        1.5124731653
 C         -5.4191250340        0.9362280807        1.6577677290
 H         -6.4167632651        1.0360674111        2.0910335883
 H         -4.7009312167        0.8641072062        2.4785683345
 C         -5.3617241043       -0.3736006519        0.8606512823
 H         -5.3919372757       -1.2065529081        1.5672431696
 H         -6.2220608009       -0.4471587261        0.1956430270
 H         -4.3549235012        2.6138327190       -1.7797656014
 H         -5.9480967921        2.4708168620       -2.5237793194
 H         -4.7757324312        0.4849492359       -3.0434000581
 H         -5.9974753131        0.0445571467       -1.8374716025
 O         -2.7992879633       -0.0480026799       -1.8567304491
 C         -1.6387143754       -0.5569109094       -1.2888337628
 O         -0.6476432330       -0.4710388228       -2.0430107647
 H          0.6546321075        0.4155638890       -0.5291278250
 C          0.9385289954        0.3459748286        0.5104813871
 C          0.4188227937       -0.6759985872        1.2918163134
 C          0.8084170076       -0.7536299061        2.6236745265
 C          1.6968004616        0.1653895223        3.1559012618
 C          2.2121316540        1.1831704646        2.3727068614
 C          1.8200953134        1.2732775692        1.0443443105
 N          2.3583806316        2.2969584863        0.2269751008
 S          3.9784879232        2.0687489210       -0.1466007280
 O          4.7600714925        2.2742082366        1.0461128658
 O          4.2603426144        2.9504272928       -1.2564899044
 C          4.0723635459        0.3629094216       -0.6566509918
 C          4.3658344875       -0.6075888617        0.2798674203
 C          4.3441126033       -1.9373585982       -0.1075120123
 C          4.0258870000       -2.2706585056       -1.4149350347
 C          3.7294816958       -1.2842070600       -2.3426411423
 C          3.7466935799        0.0469697750       -1.9601903666
 H          3.5217998100        0.8430163970       -2.6523261589
 H          3.4752422319       -1.5466847947       -3.3571922365
 H          4.0085128852       -3.3063610228       -1.7168598128
 H          4.5690840761       -2.7075827462        0.6124693274
 H          4.6078788787       -0.3054679320        1.2855116703
 H          1.8444634126        2.4022885129       -0.6377227656
 H          2.9180805669        1.8987213033        2.7619995847
 H          1.9910031414        0.0893622178        4.1914982064
 H          0.4045621958       -1.5380433565        3.2464988757
 C         -0.5040818922       -1.7067398738        0.6878821115
 H         -0.9256635823       -2.3013377939        1.5094623732
 C          0.2940260645       -2.6311343182       -0.2130884798
 C          1.0595626012       -3.7626671019        0.4007214345
 C         -0.1701887181       -4.0416861424       -0.4091054089
 H         -0.0599280984       -4.4875175594       -1.3859827212
 H         -1.0665811584       -4.3485623822        0.1102286054
 H          0.9976914602       -3.8867472464        1.4709843646
 H          2.0192018141       -4.0191046183       -0.0184689742
 H          0.7326029817       -2.1262933150       -1.0643383386
 O         -3.0235463506       -1.5603972765        1.8992836596
