  62
        -98.93358101
 C         -2.4302954362       -1.0623085816       -0.4182912408
 C         -3.6941191187       -1.1619670652        0.2112010514
 C         -4.7283533945       -0.2117091995       -0.2315956489
 C         -4.4233453049        0.6843243933       -1.1862708691
 C         -5.3032436707        1.7741013718       -1.7330725507
 C         -5.0628504091        3.0931994336       -0.9793067325
 C         -5.9018730589        3.2749659144        0.2850205151
 H         -5.5408303189        4.1752431822        0.7876125417
 H         -6.9419111235        3.4520265137        0.0030804789
 C         -5.8563737621        2.1082427241        1.2753610115
 H         -4.8299520149        1.7499808002        1.3756084153
 H         -6.1616951089        2.4872095662        2.2527310841
 C         -6.7814239642        0.9465874179        0.8824692639
 H         -7.4091597980        0.6808146090        1.7355245468
 H         -7.4563336794        1.2806119410        0.0946153980
 C         -6.0683762474       -0.3402308119        0.4400284554
 H         -6.7348238804       -0.9098139232       -0.2161543577
 H         -5.8793811021       -0.9700846862        1.3149445960
 H         -4.0004760838        3.1457438933       -0.7269382014
 H         -5.2802346223        3.9257612296       -1.6514663296
 H         -6.3485234333        1.4826808823       -1.6935664112
 H         -5.0147601075        1.9129496662       -2.7770082583
 O         -3.1938547919        0.7475383669       -1.7655572904
 C         -2.1667549573       -0.1050643124       -1.3977336480
 O         -1.1020241203        0.0870471715       -2.0145556807
 O         -3.9474421858       -2.0075536005        1.1114883301
 C         -1.3250242145       -2.0020422178        0.0346249079
 C         -0.2932941058       -1.1889993611        0.7774406199
 C         -0.5590161266       -0.8049009447        2.0892209356
 C          0.3376155818       -0.0218980374        2.7909394707
 C          1.5133328734        0.4041433805        2.1976185831
 C          1.7853119418        0.0313266226        0.8883645255
 C          0.8912645920       -0.7728164072        0.1909976684
 H          1.1082923123       -1.0469314921       -0.8294511345
 N          2.9600881104        0.4892999314        0.2609102437
 S          4.4100528443        0.3349944027        1.1115775458
 O          4.5619551252       -1.0194604773        1.5971622630
 O          4.4681514745        1.3698257508        2.1131986128
 C          5.5945020679        0.6729683484       -0.1753347893
 C          5.8616306127        1.9893684235       -0.4997086745
 C          6.7618479624        2.2583652319       -1.5182021926
 C          7.3759774078        1.2127806091       -2.1916274405
 C          7.0992440670       -0.1032430867       -1.8532285914
 C          6.1986670263       -0.3793342793       -0.8363926870
 H          5.9605591121       -1.3865885664       -0.5339696077
 H          7.5808042041       -0.9135961719       -2.3765035351
 H          8.0767892486        1.4249210645       -2.9835761660
 H          6.9817592750        3.2801419982       -1.7825439958
 H          5.3678057012        2.7689021548        0.0564006292
 H          3.0537245055        0.1115179659       -0.6724047604
 H          2.2221619988        1.0148014625        2.7329010840
 H          0.1205326749        0.2639520897        3.8094518849
 H         -1.4842248347       -1.1248524440        2.5486388000
 H         -1.7999871933       -2.6833592732        0.7536387072
 C         -0.7627161006       -2.8174785395       -1.1100373021
 C          0.0856721370       -4.0157201190       -0.8086603055
 C         -1.2966055458       -4.1949313581       -1.3586812005
 H         -1.4066585427       -4.5273416885       -2.3799980293
 H         -2.0677797621       -4.5592828539       -0.6959839664
 H          0.9264305809       -4.2289578730       -1.4510401064
 H          0.2552600593       -4.2561135869        0.2301785279
 H         -0.5110321986       -2.2214808796       -1.9787515360
