  62
        -98.93898248
 C         -2.5421028944       -1.1159697319        0.6483320141
 C         -3.4171648804       -1.0169676243       -0.4618685975
 C         -4.5378212073       -0.0732091971       -0.3089492718
 C         -4.6591993017        0.6407479011        0.8237785960
 C         -5.7191086648        1.6714891430        1.0819086804
 C         -5.2549322659        3.0694993090        0.6502554645
 C         -4.6645979557        3.1165264690       -0.7591090616
 H         -4.4016385945        4.1561545289       -0.9665090888
 H         -3.7351448247        2.5422774919       -0.7751261636
 C         -5.6019935579        2.5963604612       -1.8578892601
 H         -6.6292490054        2.5818134328       -1.4918806915
 H         -5.5685178828        3.2881237343       -2.7021914674
 C         -5.2372018623        1.2132848903       -2.4001452210
 H         -4.1809738763        1.1971496492       -2.6799947328
 H         -5.8195045832        1.0404849516       -3.3091053244
 C         -5.5038159133        0.0345136946       -1.4556699937
 H         -6.5314461004        0.0812840275       -1.0897907744
 H         -5.3853043565       -0.8863288460       -2.0341710566
 H         -6.1057873133        3.7503606840        0.7135867578
 H         -4.4915158014        3.4133047228        1.3522825671
 H         -6.6243180475        1.3960040387        0.5441885709
 H         -5.9324640690        1.6837477226        2.1521669459
 O         -3.7879587439        0.5337933438        1.8604976003
 C         -2.7148324593       -0.3365203423        1.7952065175
 O         -1.9942774973       -0.3380882254        2.8152335006
 O         -3.2917846802       -1.6717635806       -1.5270700408
 C         -1.3439953397       -2.0516488639        0.6818153084
 C         -0.1319842601       -1.3568996488        0.1170567747
 C         -0.1424548706       -0.8136187507       -1.1644762284
 C          0.9754303903       -0.1667651659       -1.6576925442
 C          2.1199144917       -0.0425754688       -0.8881437426
 C          2.1323363657       -0.5592899349        0.3998883918
 C          1.0105142396       -1.2177445481        0.8898428383
 H          1.0192632910       -1.6090660213        1.8983802399
 N          3.2860575787       -0.4438905989        1.1893956232
 S          4.1457322512        0.9963489601        1.2015207838
 O          4.8584781831        0.9923030233        2.4600895636
 O          3.2906550851        2.1325095462        0.9486687934
 C          5.3162460483        0.7970595800       -0.1262874927
 C          6.1125087464       -0.3315854012       -0.1283311650
 C          7.0341372965       -0.4985752296       -1.1493769154
 C          7.1465791538        0.4619751880       -2.1435941743
 C          6.3435665654        1.5919204195       -2.1248085755
 C          5.4184637772        1.7642933609       -1.1066996698
 H          4.7702490885        2.6248471875       -1.0545334132
 H          6.4330401266        2.3383374463       -2.8977172462
 H          7.8643874273        0.3293206472       -2.9376247640
 H          7.6605496480       -1.3758459884       -1.1671401484
 H          5.9975940275       -1.0523290298        0.6638357755
 H          3.1845183674       -0.8150916313        2.1228094222
 H          2.9899663478        0.4662693439       -1.2692076369
 H          0.9576430047        0.2466880156       -2.6548126353
 H         -1.0359411214       -0.9052313470       -1.7635082103
 H         -1.1528772267       -2.2277892934        1.7525048985
 C         -1.6203751406       -3.4077152963        0.0463437981
 C         -0.9409044604       -3.9054255005       -1.1904493984
 C         -0.5867049121       -4.4914134647        0.1408122402
 H         -0.9071453845       -5.4958370583        0.3724599205
 H          0.3705024818       -4.2238069551        0.5633752752
 H         -1.5301791152       -4.4922578000       -1.8782777860
 H         -0.2185622334       -3.2663398977       -1.6724886899
 H         -2.6533921776       -3.7115596144        0.1788226112
