  62
        -98.93598531
 C          2.3811350504        0.4868055702        0.9191104469
 C          3.4293650298        1.0883749832        0.1776945646
 C          4.7295439957        0.4025622350        0.2443070262
 C          4.8722500088       -0.7086932236        0.9867575249
 C          6.1362861698       -1.5066524113        1.1586985973
 C          6.3896129985       -2.5213243637        0.0352025872
 C          6.8171062931       -1.9172113031       -1.3030745747
 H          7.6609290922       -1.2452262245       -1.1436431722
 H          7.1695050832       -2.7405066263       -1.9276356990
 C          5.6994965890       -1.1752736221       -2.0494748496
 H          4.7302875825       -1.4663169187       -1.6374715458
 H          5.7026274437       -1.4742063300       -3.1001221998
 C          5.8160925972        0.3485192647       -2.0116815314
 H          4.9567026191        0.7714657223       -2.5379676378
 H          6.7203328683        0.6602586692       -2.5390782985
 C          5.8450474315        0.9445436754       -0.5982236134
 H          6.8077319309        0.7495022499       -0.1265820807
 H          5.7052147465        2.0252317740       -0.6790342224
 H          7.1809776089       -3.1930653401        0.3757519564
 H          5.4852732272       -3.1178083638       -0.1060416785
 H          6.9883895141       -0.8313192500        1.2403675312
 H          6.0330358061       -2.0524062595        2.0990081888
 O          3.8469431132       -1.2416449123        1.7048850219
 C          2.5853925489       -0.6736327432        1.6706586497
 O          1.7364084365       -1.2812436707        2.3558458718
 O          3.3122961839        2.1341706461       -0.5088863384
 C          0.9649061380        1.0351766586        0.9532375982
 C          0.1347805090        0.5007361357       -0.1855557818
 C          0.6134389141        0.4814908830       -1.4919702738
 C         -0.1814699602        0.0124351752       -2.5217817403
 C         -1.4709208501       -0.4248654258       -2.2749958379
 C         -1.9557719975       -0.4161990702       -0.9725118791
 C         -1.1468730240        0.0329841307        0.0621963892
 H         -1.5319070697        0.0174025042        1.0714512801
 N         -3.2532924183       -0.8645290346       -0.6811852411
 S         -4.1058569195       -0.0509643233        0.5305861942
 O         -3.8733220887        1.3711540543        0.4223472198
 O         -3.7941268771       -0.6534937462        1.8023706762
 C         -5.7835757362       -0.4432664058        0.0726830852
 C         -6.3075045580       -1.6651781484        0.4509418254
 C         -7.6006726445       -1.9856901179        0.0695623020
 C         -8.3434983484       -1.0852375436       -0.6798598028
 C         -7.8047313250        0.1378044055       -1.0501110508
 C         -6.5114793459        0.4645064240       -0.6732616748
 H         -6.0542383623        1.4064612034       -0.9303965519
 H         -8.3859319409        0.8369994532       -1.6293701406
 H         -9.3500541036       -1.3371463623       -0.9742417009
 H         -8.0240891277       -2.9341506716        0.3582469675
 H         -5.6960416150       -2.3279077547        1.0410635321
 H         -3.8157487210       -1.0132579658       -1.5078532848
 H         -2.0947577216       -0.7767494949       -3.0825545567
 H          0.2021187233        0.0022667443       -3.5309949706
 H          1.6076919973        0.8503946803       -1.6923699231
 H          0.5248458195        0.6449783835        1.8859705888
 C          0.9112172466        2.5553337327        1.0389149116
 C          0.4918555573        3.4364599707       -0.0947838296
 C         -0.4130435988        3.2600246318        1.0852608029
 H         -0.5333121318        4.0828937254        1.7741354239
 H         -1.3074985672        2.6671275759        0.9525694871
 H          1.0138166120        4.3729175578       -0.2181441323
 H          0.2113253775        2.9700577071       -1.0258044417
 H          1.6894736478        2.9467247709        1.6869361932
