  62
        -98.93856080
 C          2.4034380137        1.2006967904       -0.0743133341
 C          3.4905203878        0.8030411532        0.7429101040
 C          4.4099363503       -0.1976086119        0.1783944996
 C          4.1716326554       -0.6905246281       -1.0490230175
 C          4.9858350925       -1.6852644492       -1.8383369631
 C          5.5542375556       -2.8955567795       -1.0857944316
 C          4.6709380425       -3.4239562295        0.0538778893
 H          3.6816438767       -2.9648536323        0.0051764853
 H          4.5352588866       -4.4998031238       -0.0721193258
 C          5.2775177148       -3.1859353549        1.4388354570
 H          4.8169508422       -3.8790072371        2.1468864116
 H          6.3436346773       -3.4196203179        1.3988437120
 C          5.0946429647       -1.7768537052        2.0008151727
 H          5.6618611612       -1.7100235115        2.9322215237
 H          4.0434318405       -1.6131120079        2.2531102332
 C          5.5349256765       -0.6324296894        1.0733147847
 H          6.4200079909       -0.9046039760        0.5037719938
 H          5.7740244935        0.2325193726        1.6978221675
 H          6.5376481918       -2.6491513629       -0.6880679645
 H          5.7033953989       -3.6835694645       -1.8259612697
 H          4.3190589602       -2.0289363609       -2.6330886958
 H          5.8068941108       -1.1453048256       -2.3191857948
 O          3.1034680335       -0.2915235756       -1.7959737164
 C          2.1950362890        0.6496508616       -1.3373750448
 O          1.2789338021        0.9011672538       -2.1451013316
 O          3.6929186208        1.2753959238        1.8925445472
 C          1.4282885020        2.2245783918        0.4842060077
 C          0.1220119415        1.5231119095        0.7610824261
 C         -0.0280507609        0.8058201433        1.9450674633
 C         -1.1850355277        0.0930317037        2.1962745502
 C         -2.2131723129        0.0715275197        1.2692935602
 C         -2.0654487412        0.7686822500        0.0784359712
 C         -0.9115843740        1.5034984599       -0.1619078157
 H         -0.8053536027        2.0292743697       -1.0974872125
 N         -3.0972918773        0.7451485077       -0.8756912607
 S         -3.7912648723       -0.7342509511       -1.2590456593
 O         -2.8680060850       -1.8300719902       -1.0732712767
 O         -4.3316499060       -0.5654074488       -2.5906325044
 C         -5.1426108717       -0.8703400527       -0.1051840094
 C         -6.0219489293        0.1899806792       -0.0027965733
 C         -7.0843259847        0.0953624719        0.8817554779
 C         -7.2513277263       -1.0524872222        1.6422381093
 C         -6.3623927910       -2.1098707776        1.5252118820
 C         -5.2966356381       -2.0209992398        0.6429533358
 H         -4.5763456594       -2.8148425082        0.5235452505
 H         -6.4933628890       -3.0017359550        2.1167843355
 H         -8.0787580455       -1.1233844532        2.3304344181
 H         -7.7772832596        0.9158629710        0.9758225720
 H         -5.8579229955        1.0628269427       -0.6122182577
 H         -2.8726765470        1.2576256296       -1.7167961572
 H         -3.1129441277       -0.4927782203        1.4523464028
 H         -1.2888064970       -0.4548710861        3.1205280394
 H          0.7833945922        0.8041926511        2.6595166601
 H          1.8578880976        2.5382011886        1.4450572370
 C          1.2972525578        3.4390686491       -0.4101969742
 C          0.6559233155        4.6807089714        0.1312622225
 C          2.1317140688        4.6504110129       -0.1259600868
 H          2.5228494704        5.2123300413       -0.9608917346
 H          2.7985952209        4.6095131343        0.7226337531
 H          0.0312702467        5.2671997828       -0.5249345811
 H          0.3195145932        4.6584978768        1.1566380600
 H          1.1279781340        3.1918228601       -1.4511718081
