  62
        -98.93585206
 C         -2.5743401543       -1.2677079749        0.1377968898
 C         -2.5539645576       -0.1517525207       -0.7353918639
 C         -3.8670235011        0.4297694629       -1.0609615737
 C         -4.9818792218       -0.1091054187       -0.5371894588
 C         -6.3718944168        0.4168485823       -0.7449851632
 C         -6.7524484339        1.4225950078        0.3504841179
 C         -5.6975030949        2.5027855362        0.5906569614
 H         -6.0875152737        3.1724102192        1.3603669826
 H         -4.7958638698        2.0384015014        0.9972458860
 C         -5.3275831285        3.3180799186       -0.6563272725
 H         -6.1015913431        3.2042471533       -1.4162285038
 H         -5.2925633202        4.3752990233       -0.3849879693
 C         -3.9668608259        2.9693647185       -1.2626684160
 H         -3.7121375570        3.7429608192       -1.9920295507
 H         -3.2005281892        2.9909755197       -0.4832190403
 C         -3.8829319095        1.6171688863       -1.9819330612
 H         -4.6957101140        1.5338411015       -2.7062672856
 H         -2.9330660228        1.5894201740       -2.5238628077
 H         -6.9019242256        0.8767091053        1.2849836183
 H         -7.6992303782        1.8909732624        0.0756223368
 H         -6.4344675734        0.8881994281       -1.7237814213
 H         -7.0667676993       -0.4239806872       -0.7108976893
 O         -4.9621575963       -1.1798978745        0.2973820038
 C         -3.7650407854       -1.7656688224        0.6737075458
 O         -3.8900764786       -2.7084398115        1.4809747885
 H          1.1560791192       -1.3160862169       -0.5111181051
 C          0.9197636399       -0.7171632227        0.3547734396
 C         -0.2848168885       -0.9037701506        1.0125773728
 C         -0.5755451812       -0.0973497877        2.1096598443
 C          0.3122690939        0.8745669944        2.5285828079
 C          1.5101937600        1.0651269203        1.8626776149
 C          1.8099509276        0.2674006517        0.7673726104
 N          3.0148035953        0.4709050629        0.0685648714
 S          4.4209680091        0.6394550279        0.9878653594
 O          4.4875733426       -0.4040050937        1.9877902840
 O          4.4879984521        1.9904509044        1.4857196277
 C          5.6732091076        0.3911188570       -0.2554148534
 C          6.2469053969       -0.8578820603       -0.3991872420
 C          7.2020241589       -1.0470536843       -1.3856369781
 C          7.5629718855        0.0093276049       -2.2083420066
 C          6.9780175005        1.2572424288       -2.0517628835
 C          6.0230533797        1.4535643494       -1.0670086685
 H          5.5481626899        2.4067360854       -0.9032726971
 H          7.2631886709        2.0762625383       -2.6921626790
 H          8.3070167096       -0.1403621611       -2.9746988437
 H          7.6607327387       -2.0150309570       -1.5081023651
 H          5.9426898846       -1.6476424127        0.2689861732
 H          3.1431545001       -0.2098660710       -0.6678539849
 H          2.2138382383        1.8181410775        2.1791976912
 H          0.0712825810        1.4926462004        3.3809654230
 H         -1.5147361943       -0.2408923772        2.6281205499
 C         -1.2953730587       -1.9459833134        0.6000714768
 H         -1.5842688939       -2.5039860691        1.5062703853
 C         -0.7413891463       -2.9729360747       -0.3760820477
 C         -1.6603941694       -3.7751149791       -1.2471359973
 C         -0.7414132631       -2.7632790130       -1.8594536958
 H          0.1054626420       -3.1220615551       -2.4265271473
 H         -1.1612186099       -1.8440507075       -2.2353951898
 H         -1.4453519291       -4.8232544085       -1.3912308036
 H         -2.7157438199       -3.5489629673       -1.1999420196
 H          0.1081602832       -3.5050114120        0.0422807304
 O         -1.5075164254        0.3418121907       -1.2278874794
