  62
        -98.93624231
 C         -1.8908250006       -1.4149449885        0.2882361563
 C         -1.5885998658       -0.0788528851       -0.0676037037
 C         -2.6295188072        0.9135381134        0.2372979047
 C         -3.7738425332        0.5287727161        0.8294057247
 C         -4.9171912694        1.4257884404        1.2191976536
 C         -5.8974028277        1.7204345109        0.0755179971
 C         -5.3721286883        2.6681699693       -1.0035952004
 H         -6.2262744015        2.9574723465       -1.6190737620
 H         -4.9876542534        3.5743209607       -0.5345442232
 C         -4.2943885471        2.0590691546       -1.9115503588
 H         -4.5220613082        2.2919549084       -2.9542831408
 H         -4.3104187572        0.9706871485       -1.8175746729
 C         -2.8760811014        2.5582758401       -1.6357292884
 H         -2.8139714918        3.6260538599       -1.8575847169
 H         -2.1916290576        2.0349429516       -2.3086193728
 C         -2.3934915667        2.3286209391       -0.1975485271
 H         -1.3165253985        2.5113010476       -0.1693771140
 H         -2.8876535753        3.0238015207        0.4808237109
 H         -6.1936988070        0.7743658266       -0.3834928317
 H         -6.7899934157        2.1680472642        0.5186024232
 H         -5.4605596669        0.9090803555        2.0131922290
 H         -4.5285377286        2.3635600652        1.6169737612
 O         -4.0195768804       -0.7646074164        1.1704218600
 C         -3.0994153335       -1.7616566077        0.8967828744
 O         -3.4640883083       -2.9033950672        1.2453303726
 O         -0.5124006876        0.2845314156       -0.6036498398
 C         -0.9147425696       -2.5552063909        0.0195878552
 C          0.4152448227       -2.2379549507        0.6588542527
 C          0.4824416033       -2.4120105060        2.0428822728
 C          1.6371380498       -2.1386654989        2.7476921474
 C          2.7669576628       -1.6884241024        2.0874117104
 C          2.7167070605       -1.5067097546        0.7118223876
 C          1.5466761187       -1.7716030618        0.0076450143
 H          1.5524110906       -1.5735398654       -1.0475343228
 N          3.8670763238       -1.1017681293        0.0108766839
 S          3.8643576307        0.1954061448       -1.0463159412
 O          2.9071822608       -0.0212737662       -2.0976489239
 O          5.2470829416        0.3182086087       -1.4578266198
 C          3.4342899841        1.6016002009       -0.0361378353
 C          2.1144588752        1.8241878928        0.3002851656
 C          1.8166500310        2.8838362152        1.1446339034
 C          2.8298587742        3.6938305581        1.6330314715
 C          4.1503302602        3.4547737336        1.2831634616
 C          4.4577877803        2.3957143179        0.4452313030
 H          5.4685805379        2.1737323922        0.1429545317
 H          4.9375344122        4.0869585199        1.6614300783
 H          2.5874530108        4.5156582610        2.2884059681
 H          0.7885478081        3.0658545888        1.4169488542
 H          1.3406940217        1.1859857535       -0.0980498766
 H          4.6947653799       -1.0511548064        0.5881507160
 H          3.6779790680       -1.4844847709        2.6295255481
 H          1.6604645879       -2.2804789368        3.8175468513
 H         -0.3977691819       -2.7659381372        2.5629395421
 H         -1.3272922316       -3.4064516605        0.5851965825
 C         -1.0011501188       -2.9820022604       -1.4395160286
 C         -0.4271341164       -2.2584167413       -2.6184339152
 C          0.1162999856       -3.6001186246       -2.2239964990
 H         -0.1144889686       -4.4473046308       -2.8531385479
 H          1.0949463050       -3.6453813216       -1.7732005288
 H         -1.0384166819       -2.1998437082       -3.5088041300
 H          0.1630210824       -1.3708167967       -2.4567819082
 H         -1.9853776212       -3.4142397895       -1.6135039812
