  62
        -98.94511685
 C         -2.4460161401       -1.1844324199       -0.0827631892
 C         -3.5494452202       -0.8493321397        0.7422479607
 C         -4.4613182001        0.1756133102        0.2198519403
 C         -4.2037470601        0.7352786698       -0.9763519898
 C         -5.0139267200        1.8332663496       -1.6010505502
 C         -4.4724780800        3.2156433197       -1.2104939406
 C         -4.2379864901        3.3868062002        0.2904650694
 H         -3.8870598202        4.4088134302        0.4494107991
 H         -3.4308150802        2.7197858103        0.6028982696
 C         -5.4762750602        3.1292932204        1.1605678494
 H         -6.3765786602        3.1793790802        0.5471559993
 H         -5.5488250103        3.9216257706        1.9084421292
 C         -5.4527734203        1.8011443806        1.9191601298
 H         -6.2550176103        1.8193461909        2.6615242097
 H         -4.5079552103        1.7053887208        2.4600208699
 C         -5.6488160002        0.5424168204        1.0649446601
 H         -6.5416302802        0.6528264202        0.4463412600
 H         -5.8031927102       -0.2997643094        1.7456276204
 H         -5.1769077600        3.9729422196       -1.5594715108
 H         -3.5213280800        3.3732946596       -1.7248008205
 H         -4.9603021599        1.7256380293       -2.6857215102
 H         -6.0512046200        1.7358955997       -1.2864527802
 O         -3.1369964700        0.3891122596       -1.7403141497
 C         -2.2283612600       -0.5703577903       -1.3161108093
 O         -1.3030611900       -0.7809632305       -2.1246290992
 H          0.7762742999       -2.0158690002       -1.1418541887
 C          0.8815431399       -1.5089424300       -0.1959048688
 C         -0.1559260002       -1.5396519997        0.7222393411
 C         -0.0054684603       -0.8475921794        1.9211402709
 C          1.1556999397       -0.1489371893        2.1916811308
 C          2.1876527898       -0.1159783795        1.2692747208
 C          2.0396445399       -0.7873946699        0.0638094110
 N          3.0756311899       -0.7521839102       -0.8854062589
 S          3.7850102100        0.7288697397       -1.2325431593
 O          2.8703053799        1.8289221698       -1.0305890197
 O          4.3335292600        0.5830367993       -2.5635535092
 C          5.1289589499        0.8285974001       -0.0664044592
 C          5.9930683899       -0.2450314299        0.0264478511
 C          7.0489231198       -0.1788834596        0.9213399112
 C          7.2248659598        0.9545010806        1.7012342109
 C          6.3515845398        2.0257943705        1.5931896605
 C          5.2923218598        1.9653545103        0.7007787505
 H          4.5837941198        2.7706703103        0.5879922202
 H          6.4897399297        2.9065020907        2.1996448303
 H          8.0471587697        1.0032697108        2.3974821509
 H          7.7297967598       -1.0102291096        1.0083168415
 H          5.8225472299       -1.1058602001       -0.5980565086
 H          2.8500885000       -1.2436922104       -1.7386909988
 H          3.0908273798        0.4376414805        1.4675199207
 H          1.2599923697        0.3786835710        3.1276009206
 H         -0.8195846703       -0.8551234192        2.6326040909
 C         -1.4655367402       -2.2278564398        0.4287235812
 H         -1.8881339402       -2.5786056895        1.3798466313
 C         -1.3439369101       -3.4071180401       -0.5130593784
 C         -0.7044760801       -4.6712554499       -0.0239257980
 C         -2.1815969501       -4.6253507200       -0.2709945782
 H         -2.5797775301       -5.1531316002       -1.1246560280
 H         -2.8437202202       -4.6142964397        0.5822272518
 H         -0.3619261702       -4.6899119996        0.9994825820
 H         -0.0862175001       -5.2345916501       -0.7059663178
 H         -1.1797897800       -3.1197026304       -1.5445947885
 O         -3.7624295203       -1.3864844194        1.8614831008
