  62
        -98.94501051
 C         -2.5495224519       -0.1323188315        0.4394698022
 C         -2.3982645731        0.5465273705       -0.7933531591
 C         -2.1885058566        1.9977794569       -0.7039602720
 C         -2.1514246672        2.5861149302        0.5051404754
 C         -1.9411522400        4.0539270942        0.7395257832
 C         -0.4602992479        4.3976958201        0.9445528754
 C          0.4718725217        3.8237918947       -0.1228323188
 H          0.5157536118        2.7368218608       -0.0200377816
 H          1.4749943687        4.1983685562        0.0950719072
 C          0.0962472550        4.1878485578       -1.5657819982
 H          1.0081795411        4.4579367167       -2.1023475213
 H         -0.5551325596        5.0630091382       -1.5711878531
 C         -0.5639772291        3.0555453961       -2.3551676333
 H          0.0176805863        2.1384237800       -2.2281586726
 H         -0.5397707138        3.3196622956       -3.4160098243
 C         -2.0231964167        2.7515280728       -1.9929958826
 H         -2.4328634453        2.1014165528       -2.7716909009
 H         -2.6015297894        3.6779181581       -1.9778827347
 H         -0.1440665913        4.0066896395        1.9147220539
 H         -0.3637044215        5.4854174532        0.9676539026
 H         -2.4955688628        4.3370572733        1.6364597122
 H         -2.3375636049        4.6076061759       -0.1097399281
 O         -2.2934767377        1.8991373554        1.6690454504
 C         -2.4709250374        0.5253371392        1.6650255726
 O         -2.5573129713        0.0133600667        2.8021849516
 O         -2.4478650965       -0.0286277057       -1.9125611325
 C         -2.7350931181       -1.6380523099        0.4504148545
 C         -1.5860535918       -2.3110568566       -0.2627436471
 C         -1.7377459345       -3.4457703409       -1.0490865850
 C         -0.6380046408       -4.0220277739       -1.6621603332
 C          0.6253179209       -3.4820446566       -1.5118040762
 C          0.7868559526       -2.3424109165       -0.7293521803
 C         -0.3116369897       -1.7842345803       -0.0989506359
 H         -0.1762192266       -0.9115581624        0.5234557914
 N          2.0476479909       -1.7354930472       -0.6072782198
 S          2.3467855797       -0.6021702472        0.5973169962
 O          2.1076039426       -1.1757579690        1.9050517872
 O          1.6367786242        0.6116635736        0.2853313890
 C          4.0961041748       -0.3599115306        0.3548563606
 C          4.5183870113        0.5585725241       -0.5871992919
 C          5.8780036029        0.7254343781       -0.7979614341
 C          6.7876210273       -0.0256543612       -0.0684752099
 C          6.3492243887       -0.9419825335        0.8756876437
 C          4.9908686242       -1.1135434609        1.0910668451
 H          4.6037684661       -1.8043915160        1.8228076922
 H          7.0585271050       -1.5215489488        1.4441844571
 H          7.8450611276        0.1065953511       -0.2342543081
 H          6.2221371094        1.4397545810       -1.5283301044
 H          3.7740026413        1.1245452789       -1.1229435434
 H          2.8226057163       -2.3663371619       -0.7531816949
 H          1.4783486404       -3.9264770049       -2.0007409474
 H         -0.7685670272       -4.9044639091       -2.2700904377
 H         -2.7163228150       -3.8768612167       -1.1840993398
 H         -2.7021663920       -1.9416083903        1.5083925326
 C         -4.0897284341       -2.0051996561       -0.1217094181
 C         -4.8342088148       -3.1995491913        0.3927215286
 C         -5.3065491125       -1.8188049421        0.7322689581
 H         -6.2103106312       -1.4510315699        0.2703426854
 H         -5.1508050663       -1.4550368505        1.7379513223
 H         -5.4195033634       -3.7813869141       -0.3033146824
 H         -4.3696259588       -3.7799801657        1.1756564584
 H         -4.1731251071       -1.7600289871       -1.1742899892
