  62
        -98.93820621
 C          2.3705962786        1.1452279660       -0.5170018033
 C          3.2567777333        0.5623524259        0.4257319829
 C          3.7708790777       -0.7749101341        0.1102719507
 C          3.3814061033       -1.3697508351       -1.0315900679
 C          3.7669529654       -2.7586902869       -1.4503185497
 C          2.7444533227       -3.7900299076       -0.9534082840
 C          2.4051331433       -3.6592699815        0.5316232900
 H          1.8766483577       -2.7161607932        0.6926127361
 H          1.7048857351       -4.4612855256        0.7752577720
 C          3.6170878260       -3.7332449060        1.4711954502
 H          3.3705959511       -4.3897628218        2.3081656202
 H          4.4640713448       -4.1783397076        0.9479329068
 C          4.0393767786       -2.3894957680        2.0680418437
 H          3.1694243182       -1.8938465063        2.5065827724
 H          4.7490142868       -2.5839341296        2.8766109422
 C          4.7100621062       -1.4104171504        1.0965625574
 H          5.5309808510       -1.9097820211        0.5780086641
 H          5.1235801984       -0.5875234471        1.6868489452
 H          1.8210900279       -3.6641234118       -1.5243585439
 H          3.1367290230       -4.7890003060       -1.1535336709
 H          3.8025920285       -2.7917836722       -2.5405621191
 H          4.7546320139       -2.9899525470       -1.0557371696
 O          2.5484481560       -0.7776649227       -1.9226629038
 C          2.0036520532        0.4834691290       -1.6901912185
 O          1.2561967544        0.8716925813       -2.6059278346
 O          3.6073735553        1.1474045956        1.4866257038
 C          1.8075108087        2.5025618319       -0.1357077788
 C          0.6472533878        2.3399413316        0.8149650825
 C          0.5162407823        3.1658186192        1.9257166869
 C         -0.5620408909        3.0273165283        2.7812987302
 C         -1.5308733670        2.0706264528        2.5408014526
 C         -1.4002904824        1.2274780663        1.4419674528
 C         -0.3134809940        1.3644221241        0.5906205373
 H         -0.2242491310        0.7061134328       -0.2616378323
 N         -2.3461397024        0.2192786828        1.1999198825
 S         -2.6531216290       -0.2349699402       -0.3983800818
 O         -1.6783048514       -1.2205135824       -0.7925298159
 O         -2.7763136718        0.9424520490       -1.2263937237
 C         -4.2475236687       -1.0097844708       -0.2017396611
 C         -4.3060976842       -2.3290300316        0.2058398922
 C         -5.5466895813       -2.9184003809        0.3914912935
 C         -6.7015144798       -2.1831462714        0.1686854470
 C         -6.6272376993       -0.8608817912       -0.2428028482
 C         -5.3896737498       -0.2652485844       -0.4291929773
 H         -5.2817467257        0.7559248144       -0.7578666683
 H         -7.5262690046       -0.2927997365       -0.4194272856
 H         -7.6654607974       -2.6446544127        0.3134728196
 H         -5.6080460030       -3.9471715665        0.7077345665
 H         -3.3817187003       -2.8620336382        0.3568609882
 H         -3.1977966486        0.3377352386        1.7314477209
 H         -2.3761290759        1.9645625430        3.2034388387
 H         -0.6526931709        3.6742308884        3.6405040292
 H          1.2743487817        3.9097076617        2.1216739196
 H          2.6157621516        3.0033608962        0.4232563688
 C          1.4595222638        3.3923048808       -1.3187671770
 C          0.0664557267        3.5633041895       -1.8373206301
 C          0.7343761717        4.6893652668       -1.1100121533
 H          1.0509967382        5.5518350566       -1.6766280292
 H          0.3865186678        4.9146209410       -0.1134213099
 H         -0.0601455819        3.6301612214       -2.9072347043
 H         -0.7332372975        3.0232377908       -1.3525300172
 H          2.2470544634        3.3890639255       -2.0658134812
