  62
        -98.93585172
 C         -1.7940769504       -0.8435403994        0.8191105569
 C         -2.1661957433       -0.3077829694       -0.4368512267
 C         -3.6089932618       -0.2856438632       -0.7195544353
 C         -4.4737913245       -0.7839784035        0.1823086331
 C         -5.9684352753       -0.8920468304        0.0321744510
 C         -6.7436431153        0.4375654662       -0.0439714900
 C         -7.0093274817        0.9338184264       -1.4706136517
 H         -6.9913079212        0.0795181388       -2.1483844567
 H         -8.0186810425        1.3480182739       -1.5154241677
 C         -6.0588389925        2.0175444795       -1.9885388159
 H         -6.1963793340        2.0937620718       -3.0693096362
 H         -6.3427706828        2.9783932778       -1.5530692245
 C         -4.5744313094        1.8020103033       -1.6923877309
 H         -4.3727069665        2.0271174809       -0.6423188572
 H         -4.0015836435        2.5250314755       -2.2763868168
 C         -4.0580841697        0.3802782693       -1.9875206719
 H         -4.8249003694       -0.2127286053       -2.4836260809
 H         -3.1832979453        0.4300114067       -2.6387684689
 H         -7.7059432290        0.2702523238        0.4425960399
 H         -6.2187245603        1.1984071054        0.5331937595
 H         -6.1891008007       -1.4907879809       -0.8543600128
 H         -6.3078499284       -1.4522905167        0.9058069602
 O         -4.0690894377       -1.3087403407        1.3723326799
 C         -2.7308112840       -1.3344616945        1.7272755236
 O         -2.5060385151       -1.8115983245        2.8587541200
 H          2.1445218859       -0.1285200117        0.2739124894
 C          1.5614051327        0.6963396090        0.6478544725
 C          0.2881398157        0.4808033166        1.1517820501
 C         -0.4263181121        1.5707627137        1.6425079239
 C          0.1094568853        2.8428474684        1.6050553647
 C          1.3798483518        3.0538276272        1.0985176258
 C          2.1096746472        1.9719667206        0.6237835306
 N          3.3964061138        2.1523917888        0.0965467151
 S          4.6011852753        1.0403132504        0.4244262368
 O          4.4466298762        0.4559956789        1.7361235532
 O          5.8347624982        1.7631232021        0.1952326136
 C          4.4331976839       -0.2101958185       -0.8315183210
 C          4.0746116817        0.1624119363       -2.1117619473
 C          3.9925056731       -0.8124559069       -3.0931609238
 C          4.2775110952       -2.1337237394       -2.7834082823
 C          4.6425362697       -2.4905599907       -1.4946434413
 C          4.7217348784       -1.5209485954       -0.5069701472
 H          4.9897121636       -1.7562253328        0.5108433644
 H          4.8639453882       -3.5186183161       -1.2548057810
 H          4.2130760574       -2.8899014810       -3.5499058488
 H          3.7054357475       -0.5391322470       -4.0958333419
 H          3.8565939497        1.1967503246       -2.3186841397
 H          3.7425169358        3.1001354406        0.1290120016
 H          1.8015332823        4.0471737148        1.0703728685
 H         -0.4628702095        3.6782359147        1.9799795159
 H         -1.4155716540        1.4065769698        2.0485517205
 C         -0.3296372903       -0.8953388107        1.2116350308
 H         -0.3048261645       -1.2307609227        2.2595432261
 C          0.3937322733       -1.9165332683        0.3572270190
 C          1.5633308863       -2.6760084346        0.9048855309
 C          0.2513564745       -3.3689895342        0.6956299582
 H          0.1667071095       -4.0810761675       -0.1112183341
 H         -0.3432614833       -3.6180678609        1.5627886159
 H          1.8719859716       -2.4598590927        1.9169434675
 H          2.3783764735       -2.9125797688        0.2376722521
 H          0.4053961059       -1.6442861816       -0.6920752643
 O         -1.3399463768        0.1247603654       -1.2810354064
