  62
        -98.94391217
 C         -1.8838241099       -0.4497544887        0.9162472712
 C         -2.2123096399        0.4859873993       -0.0939684806
 C         -3.6460295199        0.7564918588       -0.2656077113
 C         -4.5431842000        0.1530400102        0.5351797897
 C         -6.0350713100        0.3454309599        0.4978068491
 C         -6.7498132397       -0.5259738021       -0.5439867993
 C         -6.5460676296       -0.0992925248       -1.9982088801
 H         -6.7824025597        0.9602013249       -2.1015204021
 H         -7.2688824194       -0.6545231361       -2.5992690392
 C         -5.1380436295       -0.3698989557       -2.5466681194
 H         -5.2140277693       -0.8269180075       -3.5359277986
 H         -4.6265328995       -1.0876693344       -1.9012773480
 C         -4.2630731896        0.8755979142       -2.6903734416
 H         -4.6980165096        1.5456585827       -3.4354546830
 H         -3.2793018095        0.5646757136       -3.0518305809
 C         -4.0605235299        1.6600994367       -1.3872541031
 H         -4.9711467600        2.1996543370       -1.1273330042
 H         -3.2563390400        2.3836380765       -1.5439569643
 H         -7.8189124998       -0.4869577919       -0.3230167595
 H         -6.4217380196       -1.5603117319       -0.4183876773
 H         -6.2649856101        1.3954745095        0.3153080571
 H         -6.4080817001        0.0741052717        1.4877311196
 O         -4.1817410000       -0.7153070579        1.5171042014
 C         -2.8528879899       -1.0533183474        1.7174042922
 O         -2.6647255399       -1.8800287056        2.6328921337
 O         -1.3582971399        1.0687479281       -0.8119789016
 C         -0.4345620899       -0.8342611181        1.1512728321
 C          0.3996550899        0.3907052826        1.4344130699
 C         -0.0664353104        1.3249849042        2.3560261181
 C          0.6677187094        2.4579755949        2.6457780460
 C          1.8845929095        2.6822396339        2.0262839158
 C          2.3680037097        1.7487322223        1.1176958376
 C          1.6314472399        0.6056489316        0.8354838396
 H          2.0195787701       -0.1001618397        0.1206536110
 N          3.6225957698        1.9281078813        0.5229256474
 S          4.0002327701        1.3255780685       -0.9870949514
 O          5.2069080700        2.0378342880       -1.3544314126
 O          2.9024936002        1.4269113166       -1.9187385217
 C          4.4124056803       -0.3829502009       -0.6988243681
 C          4.0894373505       -1.3159132927       -1.6640405864
 C          4.4517006707       -2.6396184223       -1.4676049639
 C          5.1263619806       -3.0058613200       -0.3132674931
 C          5.4436938703       -2.0565795082        0.6461967651
 C          5.0897310802       -0.7307718686        0.4531203426
 H          5.3217667000        0.0314112028        1.1778575712
 H          5.9667487303       -2.3456546064        1.5434664057
 H          5.4036747207       -4.0369355697       -0.1611018612
 H          4.2058096109       -3.3782135637       -2.2142928625
 H          3.5516528606       -0.9892764744       -2.5402863671
 H          4.0644998496        2.8175338917        0.7006238158
 H          2.4552405893        3.5722131944        2.2437161442
 H          0.2879547192        3.1776990162        3.3554634046
 H         -1.0213264504        1.1536676650        2.8347378683
 H         -0.4318105299       -1.4640336064        2.0534468733
 C          0.0778799804       -1.6554903802       -0.0141352963
 C          1.1080685605       -2.7202526996        0.2096884958
 C         -0.3076896694       -3.1006837704       -0.1007683737
 H         -0.5317015992       -3.5172092623       -1.0713742029
 H         -0.9210740895       -3.4956775990        0.6962635170
 H          1.8608352006       -2.8772432209       -0.5478453138
 H          1.4615664804       -2.8672806177        1.2188873661
 H          0.1146064304       -1.0893385819       -0.9388710774
