  62
        -98.93375147
 C         -2.4102052496       -1.0951707202        0.3090847899
 C         -2.4836396298        0.1349275001        1.0107688495
 C         -3.6662140898        0.9808085699        0.7719957492
 C         -4.6122606598        0.5576789395       -0.0868987407
 C         -5.9412553398        1.1600730093       -0.4936303610
 C         -6.2980732800        2.5927548094       -0.1084382914
 C         -5.4806101300        3.6663595292       -0.8271604917
 H         -5.7213992201        4.6356069593       -0.3856540421
 H         -5.7896086600        3.6916833988       -1.8750760018
 C         -3.9666649100        3.4706588493       -0.8019005216
 H         -3.5140728101        4.2795046692       -1.3820111619
 H         -3.7076297399        2.5345689192       -1.3009477213
 C         -3.3276432501        3.4842243698        0.5851180384
 H         -3.5892903602        4.4097121600        1.1021748681
 H         -2.2420337101        3.4723867099        0.4496859685
 C         -3.6923570100        2.2981003401        1.4928803588
 H         -4.6529464600        2.4540351702        1.9780920687
 H         -2.9346944300        2.2308464404        2.2794264488
 H         -6.2352316100        2.7180199697        0.9684711685
 H         -7.3462615000        2.7381818892       -0.3831033615
 H         -6.7036598198        0.4897970693       -0.0818392308
 H         -5.9972275098        1.0561202089       -1.5818487909
 O         -4.4984802296       -0.6329092807       -0.7414283703
 C         -3.4134956696       -1.4791481305       -0.5791283100
 O         -3.4879458694       -2.5113091008       -1.2735078697
 O         -1.5992513398        0.5076187704        1.8300381994
 C         -1.1971101596       -1.9679052700        0.5805720302
 C         -0.1459627995       -1.8234661302       -0.4946374698
 C         -0.3807439294       -2.2318835906       -1.8036708696
 C          0.6059890506       -2.0985783709       -2.7630418796
 C          1.8389172305       -1.5606568607       -2.4393325598
 C          2.0864193504       -1.1553085202       -1.1326341699
 C          1.0932927304       -1.2883974200       -0.1720150699
 H          1.2889861603       -0.9520743797        0.8352386800
 N          3.3503173904       -0.6552948500       -0.7747109500
 S          3.4804947102        0.5369772004        0.4123759296
 O          3.2976764602       -0.0712880292        1.7057499998
 O          2.6233530501        1.6571138802        0.0928989592
 C          5.1939981102        0.9835234805        0.2015856495
 C          5.5239599801        2.1355473303       -0.4862824308
 C          6.8623762301        2.4493809204       -0.6652988109
 C          7.8422379301        1.6088484706       -0.1591912505
 C          7.4954937002        0.4561615108        0.5302993798
 C          6.1596151702        0.1375075308        0.7141109299
 H          5.8421384303       -0.7417061491        1.2499122701
 H          8.2600764603       -0.1934844890        0.9246806100
 H          8.8827433201        1.8550220207       -0.3005858306
 H          7.1347996300        3.3464594002       -1.1975768611
 H          4.7278900201        2.7621669601       -0.8553888210
 H          3.9156695104       -0.4232412802       -1.5805813501
 H          2.6067044905       -1.4583067108       -3.1913156998
 H          0.4111261207       -2.4142646212       -3.7769824696
 H         -1.3462138594       -2.6385004508       -2.0619912196
 H         -0.7667495396       -1.5742440696        1.5122099601
 C         -1.5422423294       -3.4294343899        0.7941905307
 C         -0.5690074194       -4.3001990696        1.5281866410
 C         -1.8643983994       -3.9125085395        2.1746974508
 H         -2.6306593094       -4.6640984795        2.2908451110
 H         -1.8377871795       -3.1882128593        2.9761699006
 H         -0.4427772493       -5.3206410797        1.2009957713
 H          0.3370773606       -3.8378846994        1.8912196809
 H         -2.0934076994       -3.8670276602       -0.0275729092
