  62
        -98.94251093
 C         -1.8563715082       -1.1785464806       -0.2510309491
 C         -0.8096679358       -1.6964487002       -1.0461927506
 C          0.1593542109       -2.5733199372       -0.3709265163
 C          0.0202573004       -2.8152590775        0.9439890899
 C          0.8578494615       -3.6973318798        1.8374101725
 C          2.3782669480       -3.6795902016        1.6431610901
 C          2.9707339350       -2.3132052017        1.2667305048
 H          2.2247401795       -1.5256483793        1.3990734344
 H          3.7973698822       -2.0881371624        1.9442497015
 C          3.5099701298       -2.2741984409       -0.1651390707
 H          4.2230015753       -1.4516253426       -0.2483862572
 H          4.0499537493       -3.2027486284       -0.3641184271
 C          2.4535002518       -2.0667588908       -1.2471616843
 H          2.0310768078       -1.0618183308       -1.1557503254
 H          2.9484563531       -2.1207122903       -2.2196257618
 C          1.2892279848       -3.0711110238       -1.2265902964
 H          1.6247342616       -4.0577061249       -0.9164311017
 H          0.8867466057       -3.1422843949       -2.2407738540
 H          2.8162788015       -4.0193033654        2.5836556520
 H          2.6576309789       -4.4101472171        0.8850005960
 H          0.6180439235       -3.3739647394        2.8536158024
 H          0.4963793566       -4.7253215975        1.7329980975
 O         -1.0030222691       -2.2900149462        1.6755215944
 C         -1.9347365929       -1.4334390562        1.1169162520
 O         -2.7763609602       -0.9907130028        1.9238830335
 O         -0.6895334948       -1.4374379891       -2.2752406674
 C         -2.8328751992       -0.1958651426       -0.8727158535
 C         -2.6247818347        1.1552605744       -0.2324988576
 C         -3.6556906400        1.9835299020        0.1886335525
 C         -3.3712340612        3.1834734306        0.8194042917
 C         -2.0656977723        3.5707027755        1.0570572183
 C         -1.0255780561        2.7548484611        0.6228232526
 C         -1.3141243415        1.5777655205       -0.0446834212
 H         -0.5063451458        0.9408492615       -0.3735680118
 N          0.3142661364        3.1166505670        0.8320486776
 S          1.5082172120        1.9839785049        1.1426149299
 O          0.9653893720        0.7086641272        1.5480430103
 O          2.3941434458        2.6239844168        2.0939087606
 C          2.3891668908        1.8097137818       -0.3982669586
 C          1.7967826867        2.1135574486       -1.6068712857
 C          2.5262208084        1.9344624271       -2.7729571772
 C          3.8284671365        1.4650087521       -2.7133209356
 C          4.4143523180        1.1753545845       -1.4907828167
 C          3.6889522774        1.3463605564       -0.3229587391
 H          4.1031322320        1.1366682116        0.6503380903
 H          5.4301902698        0.8167069989       -1.4444291071
 H          4.3897770360        1.3264402995       -3.6236919886
 H          2.0700739486        2.1611925071       -3.7232230175
 H          0.7841431802        2.4813893455       -1.6329269583
 H          0.4491965633        3.9426757125        1.3956835729
 H         -1.8481336796        4.4909284148        1.5776193368
 H         -4.1803569272        3.8170483985        1.1499698488
 H         -4.6801441385        1.6841564181        0.0395565718
 H         -2.5435789972       -0.1264061204       -1.9323021248
 C         -4.2568973545       -0.6990842780       -0.7849686964
 C         -5.2662738197       -0.2918752360       -1.8156748898
 C         -4.7375207915       -1.6935748563       -1.7976967771
 H         -5.3888087609       -2.4892574928       -1.4687398453
 H         -4.0423396904       -1.9897990397       -2.5695766257
 H         -6.2857765985       -0.1265607213       -1.5014213078
 H         -4.9358214344        0.3628467421       -2.6077123569
 H         -4.5892391460       -0.8269450783        0.2390258589
