  62
        -98.94041665
 C          2.0614163498       -1.0135495931       -0.5355649159
 C          2.7726625897       -0.0444018812       -1.2890258261
 C          4.1928841501        0.1284106859       -0.9620039956
 C          4.7394629013       -0.6346110791        0.0017938286
 C          6.1600193022       -0.5337393956        0.4749390393
 C          6.2853652395        0.4466712488        1.6494186201
 C          5.6043974407        1.7934473289        1.4051213716
 H          4.5247621140        1.6408859323        1.3353794422
 H          5.7839901704        2.4133624382        2.2862464419
 C          6.0924372976        2.5335908415        0.1518558209
 H          6.2540884191        3.5832849149        0.4061329126
 H          7.0522782945        2.1268271484       -0.1687387513
 C          5.1130289015        2.5064619087       -1.0232231397
 H          5.4530996923        3.2334577327       -1.7657191327
 H          4.1240185921        2.8250267227       -0.6834522846
 C          4.9654706966        1.1572978519       -1.7380262301
 H          5.9516452920        0.7754522802       -2.0103162203
 H          4.3971425795        1.3286849306       -2.6570004151
 H          7.3455136672        0.6051422682        1.8553804206
 H          5.8321786525       -0.0104098250        2.5320866368
 H          6.4847764583       -1.5227542475        0.8026040769
 H          6.7903863728       -0.2103239338       -0.3511493683
 O          4.0346904639       -1.5626199178        0.6932482748
 C          2.6772275275       -1.7667102862        0.4653480479
 O          2.1733044217       -2.6289461887        1.2061687662
 O          2.2383452151        0.6405029188       -2.2034280286
 C          0.5903572439       -1.1785040678       -0.8714374082
 C         -0.2570527285       -0.2548908364       -0.0346457033
 C         -0.1260213256       -0.2124251324        1.3498101891
 C         -0.9199234890        0.6319470205        2.1047249739
 C         -1.8626412062        1.4438539627        1.4980921715
 C         -2.0050138356        1.4047077523        0.1178808743
 C         -1.2034462063        0.5596366743       -0.6388415869
 H         -1.3067187649        0.5468668669       -1.7154535160
 N         -2.9902225381        2.2048397642       -0.4959953277
 S         -4.5685121772        1.9097974009       -0.0048983306
 O         -5.4054279130        2.4374793275       -1.0578176972
 O         -4.7686166834        2.4642688346        1.3091075209
 C         -4.6679913826        0.1304147936        0.0510764256
 C         -4.4480626091       -0.5282541053        1.2440442516
 C         -4.4188292039       -1.9137168978        1.2474435202
 C         -4.6089393241       -2.6126460457        0.0658841031
 C         -4.8383749421       -1.9363582478       -1.1227226892
 C         -4.8610641690       -0.5512527683       -1.1343431750
 H         -5.0370453452        0.0112639227       -2.0374940141
 H         -4.9891624329       -2.4836810076       -2.0393266720
 H         -4.5745239577       -3.6902243673        0.0704475923
 H         -4.2407637265       -2.4428151708        2.1697231236
 H         -4.3086398029        0.0500774289        2.1422846029
 H         -2.9375289536        2.1991206183       -1.5049503037
 H         -2.4947452442        2.1023833196        2.0717773012
 H         -0.8045396176        0.6576043641        3.1778087654
 H          0.6003037467       -0.8539482981        1.8257894640
 H          0.5073947265       -0.8416021668       -1.9170851583
 C          0.1076990888       -2.6218626305       -0.8203324083
 C         -0.8817697757       -3.1299055568        0.1811318954
 C         -1.2917409548       -2.9530606326       -1.2478190589
 H         -1.4528146910       -3.8295017463       -1.8564140085
 H         -1.9491671423       -2.1271895018       -1.4755291668
 H         -0.7329633541       -4.1279753200        0.5629355789
 H         -1.2731693152       -2.4387527311        0.9107236948
 H          0.8852196254       -3.3170181881       -1.1190266860
