  62
        -98.94479769
 C          2.0456543505        1.3267693472        0.0099311846
 C          2.6492901782        0.6764526053        1.1122905999
 C          3.8437094972       -0.1241367224        0.8136127886
 C          4.2819563986       -0.2013628334       -0.4565088519
 C          5.4548323505       -1.0208250389       -0.9095907253
 C          5.0173943441       -2.4299498443       -1.3330411658
 C          4.1190121229       -3.1296609372       -0.3130300420
 H          3.8981474853       -4.1258401023       -0.7027476741
 H          3.1687460239       -2.5939212504       -0.2491237634
 C          4.7285662245       -3.2527930309        1.0906544820
 H          5.8082517574       -3.1084364017        1.0391160448
 H          4.5543161754       -4.2657025500        1.4598850588
 C          4.1384314338       -2.2936848359        2.1262123811
 H          4.4786675823       -2.6111875200        3.1155029498
 H          3.0480389217       -2.3711315194        2.1162933933
 C          4.5199155725       -0.8167095232        1.9635598057
 H          5.6049197104       -0.7243607401        1.8850217651
 H          4.1943102658       -0.2891486163        2.8649276500
 H          5.9111019160       -3.0320114661       -1.5064861654
 H          4.4698985146       -2.3544258793       -2.2754661429
 H          6.1828102742       -1.0817974826       -0.1029555558
 H          5.9135134073       -0.5208584195       -1.7642583204
 O          3.6686670769        0.4261026981       -1.4915440659
 C          2.5293913405        1.1935307681       -1.2919202981
 O          2.0588806488        1.6920645762       -2.3307172101
 O          2.2059618924        0.7573066191        2.2904586187
 C          0.8058680374        2.1710603465        0.2472980984
 C         -0.3711588440        1.5602533061       -0.4728333511
 C         -1.1935362492        2.2626240522       -1.3427061517
 C         -2.2460723358        1.6261800355       -1.9794267323
 C         -2.5089130711        0.2880809115       -1.7548679688
 C         -1.7055124956       -0.4187956750       -0.8676914153
 C         -0.6522104030        0.2198819660       -0.2327400109
 H         -0.0244278203       -0.3327636804        0.4554660854
 N         -1.9771659782       -1.7731783042       -0.6134296637
 S         -3.5715614158       -2.2287654736       -0.3886085907
 O         -3.5136547130       -3.3950401641        0.4647133632
 O         -4.2073839404       -2.4190657561       -1.6685741442
 C         -4.3402656297       -0.8643622766        0.4671124988
 C         -5.4212106953       -0.2196452323       -0.0986517728
 C         -5.9885001698        0.8525417834        0.5713961250
 C         -5.4647364218        1.2615195612        1.7877112252
 C         -4.3804060577        0.6010301473        2.3452179288
 C         -3.8110549124       -0.4730974096        1.6810920082
 H         -2.9698736300       -1.0088193640        2.0915991194
 H         -3.9735519538        0.9200154614        3.2914914770
 H         -5.9032502873        2.0993108355        2.3063623681
 H         -6.8329373166        1.3665467204        0.1414252465
 H         -5.7935881820       -0.5687083854       -1.0480093164
 H         -1.3716210232       -2.1942496760        0.0750569763
 H         -3.3125755906       -0.2242836291       -2.2583487603
 H         -2.8687156178        2.1806314469       -2.6645895698
 H         -1.0042326414        3.3056204377       -1.5337984970
 H          0.6134318102        2.1038715424        1.3283960493
 C          1.0624216810        3.6187687452       -0.1109492788
 C          0.2782683889        4.7071260244        0.5573379778
 C          1.7234713620        4.5071973830        0.8985337516
 H          2.4432100482        5.2337322868        0.5523564631
 H          1.9700519170        4.0731220691        1.8566241603
 H          0.0055019528        5.5763502967       -0.0215782213
 H         -0.4596563542        4.4137198433        1.2882938483
 H          1.3425666413        3.7492861922       -1.1498572272
