  62
        -98.93804063
 C         -0.0827989951       -1.9559372396       -0.4704841065
 C          0.6115578722       -1.7573911450        0.7458527670
 C          2.0536784477       -1.4870858694        0.6275370726
 C          2.6178533740       -1.4565702132       -0.5934827279
 C          4.0733846551       -1.2146766207       -0.8796937064
 C          4.4035340486        0.2865614660       -0.7763971008
 C          5.3509254757        0.6441677494        0.3683597601
 H          5.3514383120        1.7312218887        0.4676012485
 H          6.3644105879        0.3399404805        0.0985679404
 C          5.0202991906        0.0191058624        1.7272770088
 H          5.5833193708        0.5753255041        2.4795375045
 H          5.3922029455       -1.0060940828        1.7581595898
 C          3.5376604460        0.0146821753        2.1231644581
 H          2.9925042510        0.7956182771        1.5933109996
 H          3.4703967558        0.2430255301        3.1884986139
 C          2.8245129151       -1.3332511659        1.9095212040
 H          2.0790759355       -1.4675532348        2.6989744242
 H          3.5464816526       -2.1498263834        2.0014214033
 H          3.4650623753        0.8305197525       -0.6616357542
 H          4.8548601757        0.6236916988       -1.7106643379
 H          4.2661849726       -1.5777923994       -1.8895816530
 H          4.6794368450       -1.7897342774       -0.1826070924
 O          1.9030235418       -1.5965139746       -1.7421039606
 C          0.5432937879       -1.8563775723       -1.7116024341
 O          0.0157941923       -1.9783326187       -2.8368059360
 O          0.0604912709       -1.8257691543        1.8754721488
 C         -1.5448244913       -2.3579305368       -0.4483438780
 C         -2.3786713008       -1.4138504448        0.3817551305
 C         -3.3662876359       -1.8594414617        1.2516137078
 C         -4.1407240794       -0.9557991378        1.9570032525
 C         -3.9619257538        0.4042026168        1.7942710309
 C         -2.9793677660        0.8620075528        0.9221944638
 C         -2.1907630385       -0.0445366249        0.2322007596
 H         -1.4293163698        0.3159185948       -0.4461661421
 N         -2.7769258677        2.2382584081        0.7604787331
 S         -2.1333595839        2.9101335870       -0.6182001654
 O         -2.5748347557        4.2896130335       -0.5787334869
 O         -2.4858864897        2.1722648527       -1.8084025881
 C         -0.3730458574        2.9038191145       -0.3619103417
 C          0.4575502737        2.8123651774       -1.4607528120
 C          1.8249449753        2.9505443776       -1.2828801372
 C          2.3351821753        3.1757591349       -0.0133532899
 C          1.4899369547        3.2437411155        1.0834064459
 C          0.1213138610        3.1138857743        0.9098837820
 H         -0.5634137416        3.1722987837        1.7392849694
 H          1.8919093611        3.4063559585        2.0706453983
 H          3.3984414635        3.2998059308        0.1206750398
 H          2.4835514560        2.8874005827       -2.1346821342
 H          0.0195093793        2.6333209294       -2.4304502610
 H         -3.4579425538        2.8354019113        1.2046485698
 H         -4.5715041065        1.1111429133        2.3359874339
 H         -4.8998140492       -1.3161243716        2.6345239067
 H         -3.5303937229       -2.9164948704        1.3794058747
 H         -1.8966514296       -2.2860243825       -1.4889854334
 C         -1.6499801916       -3.8035578684        0.0000499484
 C         -2.7351964842       -4.6904907158       -0.5299681805
 C         -1.3195667742       -4.8877357075       -0.9796680880
 H         -0.7804612609       -5.7548138383       -0.6283661412
 H         -1.0498794433       -4.5824249854       -1.9805137787
 H         -3.1679774758       -5.4281326125        0.1290675200
 H         -3.4332443597       -4.2612777572       -1.2329179316
 H         -1.3269217700       -3.9431260652        1.0257558985
