  62
        -98.93688160
 C         -1.9873513508       -0.8955587460       -0.0342282022
 C         -2.2770932022        0.0911498405        0.9344653866
 C         -2.4405699792        1.4674700495        0.4412150080
 C         -2.2881183929        1.7181042962       -0.8705105643
 C         -2.3432349057        3.0455226304       -1.5852844119
 C         -3.4464965256        4.0304203865       -1.1754986075
 C         -4.7679727851        3.3791469458       -0.7420281633
 H         -5.5883604644        3.8386518485       -1.2961321873
 H         -4.7592153478        2.3168202225       -0.9914414985
 C         -5.0558320490        3.5497095646        0.7514007911
 H         -6.1257485064        3.4085580703        0.9215231241
 H         -4.8102022709        4.5736567592        1.0408876672
 C         -4.3199268793        2.5798755750        1.6751137488
 H         -4.5191691526        2.8793164383        2.7068656369
 H         -4.7223851178        1.5709310606        1.5506494339
 C         -2.7977633413        2.4991865712        1.4725782468
 H         -2.3775479350        3.4723396747        1.2292507346
 H         -2.3490125923        2.1542104521        2.4086259367
 H         -3.6241900514        4.6785390964       -2.0353092058
 H         -3.0838030919        4.6687998266       -0.3711444186
 H         -1.3667485191        3.5255754182       -1.4688915003
 H         -2.4517960096        2.7925951829       -2.6428073028
 O         -2.0111982786        0.7346386730       -1.7727212693
 C         -1.8356624601       -0.5824136532       -1.3838464320
 O         -1.5644779608       -1.3627225335       -2.3171644888
 H          0.4524818279       -0.7855507702        0.3724837894
 C          0.6830630086       -1.8060554389        0.1027809594
 C         -0.3339243071       -2.7512535451        0.0637302065
 C         -0.0070851492       -4.0606444794       -0.2662824505
 C          1.3022048220       -4.4022145377       -0.5595443717
 C          2.3067212332       -3.4532408705       -0.5386742333
 C          1.9888781726       -2.1374133249       -0.2152726229
 N          2.9769326959       -1.1401778294       -0.2481357540
 S          2.7168100862        0.3773225032        0.4218074758
 O          2.4136236743        0.2689304521        1.8331411826
 O          1.7632973161        1.0945242687       -0.3881925843
 C          4.3408360918        1.0807032946        0.2048703795
 C          5.2280856068        1.0892735960        1.2644271951
 C          6.4956099901        1.6171785840        1.0738763728
 C          6.8534107053        2.1226627442       -0.1667912473
 C          5.9518460034        2.1083937331       -1.2208948311
 C          4.6829120178        1.5828924564       -1.0365582084
 H          3.9448440794        1.5587971376       -1.8216165889
 H          6.2317021646        2.5050080743       -2.1835128377
 H          7.8399253659        2.5332680912       -0.3128648327
 H          7.1970411489        1.6327931728        1.8922940279
 H          4.9014608181        0.6944664267        2.2129625567
 H          3.9142126930       -1.4828896484       -0.0943012116
 H          3.3240055326       -3.7193056505       -0.7801428609
 H          1.5425816246       -5.4237138514       -0.8123830716
 H         -0.7784043890       -4.8129146368       -0.2956699666
 C         -1.7391498233       -2.3218498448        0.4145442147
 H         -1.8240739276       -2.3021242940        1.5127004054
 C         -2.8000682286       -3.2512481337       -0.1403119400
 C         -3.2743759583       -4.4297915974        0.6550850205
 C         -4.1650388051       -3.2382739933        0.4781930054
 H         -5.0254523916       -3.3238905145       -0.1682342250
 H         -4.3167770851       -2.5818965030        1.3229651907
 H         -2.8326292893       -4.5880735805        1.6274255379
 H         -3.5273206070       -5.3379651660        0.1289915532
 H         -2.7393437441       -3.3481733332       -1.2185295425
 O         -2.3817677928       -0.1652286545        2.1664394832
