  62
        -98.92762169
 C         -2.4783849994       -0.6842921788        1.0303381959
 C         -3.5740076198       -0.9266806435        0.1671013391
 C         -4.6899862755        0.0358383045        0.2472245744
 C         -4.6181333060        1.0731929405        1.0972184886
 C         -5.6466376164        2.1433688786        1.3647924312
 C         -6.3624147040        2.7574651252        0.1535807724
 C         -5.5167983594        2.8463570114       -1.1251872409
 H         -4.4687577054        2.6438651382       -0.8972300106
 H         -5.5735085329        3.8634261668       -1.5176478906
 C         -5.9932744693        1.8928163890       -2.2236503928
 H         -5.6176194860        2.2501594221       -3.1855110606
 H         -7.0841733283        1.9255493513       -2.2665970113
 C         -5.5417923137        0.4405421465       -2.0738332599
 H         -4.4665870290        0.3665710848       -2.2584521649
 H         -6.0401130143       -0.1481215088       -2.8478671554
 C         -5.8250811055       -0.2033617919       -0.7066565422
 H         -5.8768680272       -1.2859877143       -0.8503526817
 H         -6.7727594296        0.1387339020       -0.2981599357
 H         -6.6801405998        3.7585719999        0.4499126772
 H         -7.2684444823        2.1919556840       -0.0597818966
 H         -6.3932134796        1.7329636814        2.0509357126
 H         -5.1075027673        2.9244536747        1.9060770659
 O         -3.5365802104        1.2753746616        1.9028867368
 C         -2.4513122436        0.4208464665        1.8839054637
 O         -1.5351100139        0.7395009120        2.6693034698
 H          1.2266405909       -0.5471187518        1.4296337334
 C          0.9669213109       -0.6047797217        0.3805848894
 C         -0.2709710999       -1.1124943148        0.0166939799
 C         -0.6023459253       -1.1604021537       -1.3343942844
 C          0.2917534033       -0.7120336375       -2.2887925347
 C          1.5249358667       -0.2001082519       -1.9216956135
 C          1.8629079454       -0.1434237499       -0.5765156445
 N          3.1032120481        0.4056508712       -0.1833021855
 S          4.5016180351       -0.3014255692       -0.8173447249
 O          4.5226693742       -0.0890766329       -2.2413873401
 O          4.6072966141       -1.6774039057       -0.3794665843
 C          5.7523345366        0.6957922045       -0.0346881453
 C          5.9286676263        1.9908312395       -0.4833417013
 C          6.8815565544        2.7874280125        0.1306243545
 C          7.6371765673        2.2788749107        1.1770244852
 C          7.4488341463        0.9770198249        1.6153057263
 C          6.4959479431        0.1751211772        1.0063712229
 H          6.3192979787       -0.8442494878        1.3103157787
 H          8.0391711904        0.5840443746        2.4273670242
 H          8.3790596813        2.9007546218        1.6526629161
 H          7.0320662741        3.8000003847       -0.2074799289
 H          5.3235274292        2.3413778950       -1.3028523818
 H          3.1855456269        0.4269278075        0.8255994965
 H          2.2295229215        0.1438744504       -2.6607589145
 H          0.0251533155       -0.7566412264       -3.3343385179
 H         -1.5671063728       -1.5515085396       -1.6208141881
 C         -1.2424631269       -1.5695785402        1.0748769124
 H         -0.7842191776       -1.3659009061        2.0549701346
 C         -1.5684914765       -3.0568946273        1.0179666481
 C         -0.9661337557       -3.9983211356        0.0211271208
 C         -0.5377520443       -4.0564453668        1.4541107448
 H         -0.8488791004       -4.8943522919        2.0594763624
 H          0.4462926820       -3.6806660907        1.6940413652
 H         -0.2658119554       -3.6070654229       -0.7004480935
 H         -1.5950930137       -4.7855970314       -0.3658851936
 H         -2.5917247941       -3.2661214659        1.3081690130
 O         -3.6468428717       -1.8973740213       -0.6284872331
