  62
        -98.94176767
 C         -2.1934645983       -1.2632360832        0.3018237528
 C         -1.8037636473       -0.3189463166       -0.6802956750
 C         -2.6151896815        0.9094525517       -0.7428689571
 C         -3.6335230270        1.0790967110        0.1188695044
 C         -4.5207566157        2.2883791277        0.1771131589
 C         -3.9746272420        3.3384782687        1.1541445171
 C         -2.4949552549        3.6616011614        0.9468804247
 H         -2.2261838930        4.4374869637        1.6672045031
 H         -1.8999805801        2.7783838035        1.1924228387
 C         -2.1413422102        4.1336086507       -0.4704296545
 H         -3.0440460632        4.4609783927       -0.9873671881
 H         -1.4789957710        4.9986409729       -0.3950524972
 C         -1.4153456275        3.0909622235       -1.3224587283
 H         -0.5636544181        2.6980864827       -0.7618298882
 H         -1.0197643452        3.5960363853       -2.2076558651
 C         -2.2666382544        1.9108803625       -1.8086761745
 H         -3.1708091656        2.2866671299       -2.2920156961
 H         -1.6835288155        1.3612787524       -2.5535521511
 H         -4.5658242005        4.2498255318        1.0481768683
 H         -4.1052677507        2.9662155616        2.1730665673
 H         -4.6087180917        2.7159460634       -0.8198401893
 H         -5.5091232050        1.9715986432        0.5147660133
 O         -3.9459483993        0.1721138640        1.0799294384
 C         -3.2310480943       -1.0090536301        1.2022471217
 O         -3.6044003025       -1.7367121755        2.1442082414
 H         -0.0527642304       -0.8321028946        1.8521844297
 C          0.5923730895       -1.4301598665        1.2190368652
 C          0.0247028584       -2.3990721922        0.4000520757
 C          0.8643751122       -3.1481302751       -0.4137710206
 C          2.2330068363       -2.9398754635       -0.3926358465
 C          2.7933301982       -1.9761966882        0.4242064911
 C          1.9594618295       -1.2033274775        1.2232701204
 N          2.5113041255       -0.1916938703        2.0252989369
 S          3.7566554570        0.7346176285        1.4008916859
 O          5.0134217136        0.0654317894        1.6339690936
 O          3.6133495276        2.0277798037        2.0349963034
 C          3.4731271807        0.8658958109       -0.3563719406
 C          2.2177902193        1.2193700714       -0.8074606502
 C          1.9949908825        1.3110001779       -2.1709006005
 C          3.0307437048        1.0592705259       -3.0569698066
 C          4.2900962986        0.7170969358       -2.5894711559
 C          4.5152538854        0.6149001716       -1.2262630714
 H          5.4738794180        0.3372809846       -0.8185359093
 H          5.0937644014        0.5227548762       -3.2813751312
 H          2.8512376587        1.1276327041       -4.1182623760
 H          1.0085904729        1.5554342542       -2.5291497757
 H          1.4235471606        1.4016058314       -0.1006621954
 H          1.8293458051        0.3806043667        2.5000296542
 H          3.8578436397       -1.8083365608        0.4570043935
 H          2.8729752329       -3.5342905606       -1.0264222568
 H          0.4490764796       -3.8872731864       -1.0780389294
 C         -1.4719024608       -2.5898838839        0.4647697593
 H         -1.7158354877       -2.9198057492        1.4889389260
 C         -1.9779665430       -3.6802785838       -0.4700904290
 C         -3.3512896757       -3.6200864048       -1.0678912002
 C         -2.1464238073       -3.4491638159       -1.9408075293
 H         -1.8895937115       -4.2491019182       -2.6196657079
 H         -1.9183968559       -2.4648338113       -2.3170926613
 H         -3.9164902585       -4.5374041171       -1.1395474168
 H         -3.9582087473       -2.7525269560       -0.8520982265
 H         -1.6369210062       -4.6648894544       -0.1656850541
 O         -0.8393909112       -0.4785467738       -1.4694325325
