  62
        -98.94630795
 C         -2.5744676127       -0.0139110154       -0.4220835742
 C         -2.1833413862       -0.5831992460        0.8139051955
 C         -1.8708182333       -2.0173353542        0.7840407847
 C         -1.9548090476       -2.6967086839       -0.3743813145
 C         -1.7271777525       -4.1734036455       -0.5579071376
 C         -0.2549387239       -4.5708147454       -0.7250483008
 C          0.5803144401       -4.5078608296        0.5536549505
 H          0.0690223549       -5.0499404858        1.3500449080
 H          1.5180891336       -5.0290139273        0.3514884313
 C          0.9022894759       -3.0829203063        1.0227735299
 H          1.9575551463       -3.0147589230        1.2995355819
 H          0.7569253804       -2.3771423950        0.2009247134
 C          0.0980238965       -2.6013931997        2.2303228259
 H          0.3715532814       -3.1883329970        3.1109673295
 H          0.3781058813       -1.5605903065        2.4135002474
 C         -1.4244720251       -2.6693341300        2.0576079294
 H         -1.7594649974       -3.7067916374        2.0905736345
 H         -1.8853232454       -2.1244095411        2.8856545984
 H          0.1973783295       -3.9270250763       -1.4832288038
 H         -0.2347108351       -5.5969658192       -1.0998274710
 H         -2.1573257045       -4.7150295374        0.2853841775
 H         -2.2655037455       -4.4565183295       -1.4651658758
 O         -2.3095223065       -2.1054209820       -1.5469278283
 C         -2.6060418163       -0.7538712149       -1.6024941604
 O         -2.8931017348       -0.3367108524       -2.7447906250
 H         -0.3362652066        1.0015706325       -0.9584427428
 C         -0.4753243342        1.9026778308       -0.3792234848
 C         -1.7595024001        2.3034707496       -0.0361935050
 C         -1.9149973596        3.4731537572        0.6974164986
 C         -0.8073280481        4.2019735894        1.0944466993
 C          0.4710178696        3.7752188074        0.7852518540
 C          0.6366159013        2.6126824208        0.0415056893
 N          1.9217363918        2.1454747142       -0.3077421871
 S          2.2089299568        0.4991858370       -0.0280192367
 O          1.5741243889       -0.2779706465       -1.0627644261
 O          1.8709737765        0.1742284126        1.3383706001
 C          3.9778123094        0.4479534201       -0.2490799116
 C          4.8052062031        0.3946628780        0.8561966145
 C          6.1783520213        0.3867165578        0.6658279811
 C          6.6972186259        0.4354473970       -0.6191168899
 C          5.8536563912        0.4878918355       -1.7191513730
 C          4.4801871155        0.4945325511       -1.5356080865
 H          3.7847330462        0.5256794307       -2.3582534090
 H          6.2602037987        0.5231050645       -2.7169832566
 H          7.7658158883        0.4300365875       -0.7649351929
 H          6.8362133824        0.3425813544        1.5187449945
 H          4.3549944573        0.3510937509        1.8349638178
 H          2.6486183942        2.6896940604        0.1407879318
 H          1.3340065532        4.3337364130        1.1157316448
 H         -0.9414266488        5.1071147120        1.6672809152
 H         -2.9033206758        3.8093889605        0.9655397791
 C         -2.9222493592        1.4608716892       -0.5033511457
 H         -3.0892806271        1.6747399590       -1.5702233734
 C         -4.2042679216        1.7381867254        0.2561423585
 C         -5.1448724178        2.8096116079       -0.2054001601
 C         -5.5108965152        1.3668590703       -0.3761823262
 H         -6.2865179922        0.9506045885        0.2487634210
 H         -5.4743584467        0.9413302328       -1.3687670295
 H         -5.6753061105        3.3852773714        0.5381276621
 H         -4.8724531192        3.3683297423       -1.0880790549
 H         -4.0975151308        1.5699599332        1.3217707111
 O         -2.1222071648        0.0667302634        1.8911225557
