  62
        -98.93707019
 C         -1.8227806291       -0.8471361712       -0.0146976958
 C         -2.3800289893        0.4529691984        0.0189725482
 C         -3.8062308394        0.5317280660        0.3760268726
 C         -4.4775736135       -0.6000987999        0.6566505480
 C         -5.9470869579       -0.6913986645        0.9555486973
 C         -6.7568374854       -0.5828129972       -0.3523141491
 C         -7.6314536235        0.6672780303       -0.4500772950
 H         -7.9770684336        0.7444927279       -1.4831569319
 H         -8.5116994036        0.5352567959        0.1826003206
 C         -6.9604606971        1.9846651280       -0.0492853682
 H         -7.5987394960        2.7910324484       -0.4168521093
 H         -6.9440496559        2.0727568927        1.0380450992
 C         -5.5376768870        2.2025936134       -0.5804852453
 H         -5.4372754664        3.2530010274       -0.8615671441
 H         -5.3698093455        1.6157655996       -1.4839182782
 C         -4.4202633706        1.9029229726        0.4365285588
 H         -3.5874883911        2.5886620469        0.2531936691
 H         -4.7866629160        2.0955529141        1.4487302526
 H         -7.3993926526       -1.4583557012       -0.4565667864
 H         -6.0574371274       -0.6053122770       -1.1907220376
 H         -6.2315200395        0.0969988211        1.6487313623
 H         -6.1226251879       -1.6561631775        1.4318107905
 O         -3.9010619831       -1.8298977147        0.6249566825
 C         -2.5670234445       -1.9865859519        0.2881360329
 O         -2.1660972616       -3.1678706910        0.3008285754
 O         -1.7220887511        1.4962054282       -0.2335782871
 C         -0.3649271023       -1.0374451489       -0.3935765752
 C          0.5234894684       -0.2326031544        0.5231588325
 C          0.3209785615       -0.3181095763        1.8988908748
 C          1.0980968733        0.4122954331        2.7754910815
 C          2.1092339024        1.2303647917        2.3015084076
 C          2.3303161161        1.3121782114        0.9331646336
 C          1.5431637084        0.5796009679        0.0532696564
 H          1.7307416073        0.6777910742       -1.0024695807
 N          3.3502801615        2.1326686594        0.4220637071
 S          4.3863396732        1.5226277536       -0.7404167340
 O          5.5425242139        2.3901753573       -0.6889581181
 O          3.7179789766        1.4301053753       -2.0124352268
 C          4.8085461514       -0.1007236462       -0.1351056527
 C          5.6910337710       -0.1909189613        0.9238819512
 C          5.9736351051       -1.4376107390        1.4570091651
 C          5.3650139313       -2.5668823348        0.9301351068
 C          4.4841580529       -2.4596013338       -0.1346546654
 C          4.2000870834       -1.2150576669       -0.6746475475
 H          3.5234222220       -1.0905323988       -1.5037860578
 H          4.0137460261       -3.3394057305       -0.5442455699
 H          5.5796919523       -3.5371650895        1.3494865203
 H          6.6624255154       -1.5258699776        2.2816619763
 H          6.1508559484        0.7091586343        1.2986601775
 H          3.8643370587        2.6411301675        1.1268077059
 H          2.7137274730        1.8079629139        2.9841716205
 H          0.9191777852        0.3431167778        3.8378817279
 H         -0.4682388605       -0.9582039952        2.2696763475
 H         -0.1480825586       -2.1037024977       -0.2319623612
 C         -0.1675455926       -0.7178357601       -1.8608341109
 C          0.8598108740       -1.4540500994       -2.6647685554
 C         -0.5980786504       -1.7196772903       -2.8882228248
 H         -1.0580409317       -1.3613534283       -3.7969638719
 H         -1.0084489247       -2.6522964843       -2.5284644893
 H          1.4109343079       -0.9122053891       -3.4194863085
 H          1.4307945180       -2.2189515137       -2.1601190509
 H         -0.3403368141        0.3284097363       -2.0874969480
