  62
        -98.93848799
 C          2.5308321769        1.1966657854        0.2254624908
 C          2.6772963344        0.3602526066       -0.9052589418
 C          3.5506050686       -0.8168092500       -0.7416937308
 C          4.1443094273       -1.0423704369        0.4452864755
 C          5.1082573015       -2.1240639073        0.8870900723
 C          5.2945411897       -3.3915393201        0.0567549229
 C          4.0712846205       -4.3060605666       -0.0008141110
 H          4.2865573238       -5.1201557054       -0.6961879244
 H          3.9187480160       -4.7452786303        0.9884245668
 C          2.7631540989       -3.6348812582       -0.4128035136
 H          1.9803635716       -4.3984097101       -0.4092987403
 H          2.4839269281       -2.8874608617        0.3332734560
 C          2.7685659791       -2.9810881067       -1.7934555109
 H          3.0795643402       -3.7106406630       -2.5435220790
 H          1.7410781484       -2.6835383165       -2.0201759535
 C          3.6516509442       -1.7285095519       -1.9302886034
 H          4.6878233031       -1.9926538531       -2.1266015869
 H          3.2896373056       -1.1536825037       -2.7875917549
 H          6.1044862229       -3.9546193114        0.5284648696
 H          5.6289560360       -3.1396213079       -0.9452005787
 H          6.0815335159       -1.6311004578        0.9881854082
 H          4.7986135888       -2.4019326643        1.8997458623
 O          3.9681610866       -0.2040510393        1.5104289236
 C          3.1573714970        0.9149324496        1.4362933709
 O          3.0717854119        1.5610212278        2.5015840814
 H          0.2631860852        0.3218182779        1.0418089886
 C         -0.3279847450        0.9045744336        0.3444167673
 C          0.2335880071        2.0351765722       -0.2360814289
 C         -0.5449892786        2.7819579768       -1.1107043505
 C         -1.8394358412        2.3908483767       -1.4070488006
 C         -2.3850195011        1.2527150015       -0.8430955517
 C         -1.6199287648        0.5043339498        0.0419328072
 N         -2.1646219618       -0.6608941087        0.6150122335
 S         -3.6111479365       -0.4998715880        1.4566447361
 O         -3.7452657881        0.8219202708        2.0249396357
 O         -3.6328381871       -1.6057034127        2.3894952299
 C         -4.8610482303       -0.7608900926        0.2162927704
 C         -4.8330313236       -1.9425919765       -0.4982019861
 C         -5.8037137664       -2.1641782608       -1.4619630437
 C         -6.7818647092       -1.2077102652       -1.6910259815
 C         -6.7981773127       -0.0282007556       -0.9624753824
 C         -5.8290360269        0.2006389690        0.0020433621
 H         -5.7972479790        1.1048870305        0.5885340264
 H         -7.5595142364        0.7137840289       -1.1418463052
 H         -7.5360550864       -1.3830827896       -2.4418518053
 H         -5.7941013787       -3.0800459826       -2.0306566289
 H         -4.0580878065       -2.6604923840       -0.2869129447
 H         -1.5000307779       -1.1840558459        1.1669679741
 H         -3.3886673657        0.9391440441       -1.0795651008
 H         -2.4303400798        2.9791399864       -2.0922512196
 H         -0.1367060985        3.6706907520       -1.5630809776
 C          1.6418370176        2.4229807046        0.1487474393
 H          1.6096022579        2.8398665538        1.1670143842
 C          2.2563353303        3.4516381877       -0.7788930845
 C          2.0559836883        4.9153611114       -0.5291301619
 C          3.3924370828        4.2877012625       -0.2740782231
 H          4.2071301363        4.5120010831       -0.9459908140
 H          3.7013448530        4.1346659532        0.7501997180
 H          1.9564434396        5.5748071774       -1.3781233658
 H          1.4607644464        5.2009473031        0.3252066578
 H          2.3057491715        3.1062381848       -1.8050533171
 O          2.1092901824        0.5825896209       -2.0053293965
