  62
        -98.94392109
 C         -1.7892791107       -0.6468553297        0.5844305089
 C         -3.0755274583       -0.6181065209        1.1739588024
 C         -4.2051040201       -0.5337049733        0.2414628142
 C         -3.9760014885       -0.5146247302       -1.0844308102
 C         -5.0239983797       -0.4628770321       -2.1629214480
 C         -5.5216164344        0.9529814486       -2.4839868254
 C         -6.4227108211        1.5817647220       -1.4204828822
 H         -7.2355154026        0.8950144371       -1.1820268577
 H         -6.8695677240        2.4731717842       -1.8653024002
 C         -5.6933739653        1.9864312785       -0.1317400929
 H         -6.0050343933        2.9910520718        0.1631679682
 H         -4.6180487710        2.0288793031       -0.3206072866
 C         -5.9517081019        1.0642513679        1.0600189187
 H         -7.0057609088        1.1168204022        1.3414761991
 H         -5.3598001316        1.4236650884        1.9058987841
 C         -5.5841531455       -0.4051470019        0.8142993331
 H         -6.3165019397       -0.8706777644        0.1550159054
 H         -5.5957180443       -0.9263581811        1.7747412209
 H         -6.0842243048        0.8967282800       -3.4187852878
 H         -4.6562642797        1.5974283052       -2.6559787710
 H         -5.8695817578       -1.0918968021       -1.8832630546
 H         -4.5642816008       -0.8775574408       -3.0626364860
 O         -2.7247046874       -0.5630669621       -1.6123749445
 C         -1.6014546211       -0.6076069710       -0.7974924775
 O         -0.5219632924       -0.6140564160       -1.4155601146
 O         -3.2687865638       -0.6612776538        2.4190730318
 C         -0.5734399788       -0.7273289295        1.4865829425
 C          0.3501359340        0.4485572848        1.2808503693
 C         -0.1717585815        1.7044289262        0.9851922059
 C          0.6583320420        2.7887382569        0.7716128195
 C          2.0323818143        2.6511552913        0.8640623745
 C          2.5631474148        1.4114943092        1.1870874910
 C          1.7274067935        0.3210031001        1.3946142516
 H          2.1610894894       -0.6368059734        1.6386147192
 N          3.9683593694        1.2768487396        1.2809342565
 S          4.7876995683        1.2416895357       -0.1823210400
 O          6.1908544792        1.1467748641        0.1505427701
 O          4.3862605304        2.3825924668       -0.9628178560
 C          4.2457817542       -0.2769126225       -0.9439925835
 C          5.0545630826       -1.3943885126       -0.8650037799
 C          4.5870965921       -2.5962507144       -1.3706309196
 C          3.3170521456       -2.6648443859       -1.9249927213
 C          2.5154475720       -1.5357973316       -1.9925079672
 C          2.9836027729       -0.3274816479       -1.5004009155
 H          2.3736282267        0.5603708544       -1.5417895067
 H          1.5154471144       -1.5778158581       -2.3943328667
 H          2.9466886757       -3.6040926940       -2.3055156371
 H          5.2077612811       -3.4767716772       -1.3238404213
 H          6.0306331619       -1.2965150426       -0.4175457026
 H          4.2549828271        0.4769655759        1.8294808521
 H          2.6971011617        3.4785682372        0.6779831875
 H          0.2320099729        3.7508985517        0.5299882556
 H         -1.2445555883        1.8207942705        0.9116657322
 H         -0.9696785454       -0.6758300466        2.5124808858
 C          0.1246539699       -2.0605940351        1.2994618077
 C          0.7843956083       -2.7495810007        2.4559036923
 C         -0.4942589950       -3.2897895460        1.8916878183
 H         -0.4642837951       -4.2078254711        1.3246701590
 H         -1.4016183680       -3.1597121710        2.4635086665
 H          1.6946825594       -3.3019207430        2.2755557047
 H          0.7435550323       -2.2648997958        3.4199436939
 H          0.5828319807       -2.1523674696        0.3207729857
