  62
        -98.93846435
 C         -2.5250727894       -1.1931025059        0.2232814667
 C         -2.6877206099       -0.3506883590       -0.9007080727
 C         -3.5728357773        0.8157288141       -0.7238578333
 C         -4.1560372144        1.0305767347        0.4702704435
 C         -5.1307973214        2.0967781410        0.9258371513
 C         -5.3524359249        3.3591270783        0.0964915513
 C         -4.1477856055        4.2968515536        0.0219861772
 H         -4.3864636446        5.1043852923       -0.6734118148
 H         -3.9928013057        4.7421879876        1.0080877122
 C         -2.8316683005        3.6493675910       -0.4021994563
 H         -2.5314625060        2.9078236622        0.3415181959
 H         -2.0631259256        4.4271881753       -0.4071195922
 C         -2.8384535418        2.9942735621       -1.7821407020
 H         -1.8082259398        2.7138085460       -2.0179292921
 H         -3.1685030983        3.7176519633       -2.5300767651
 C         -3.7015922139        1.7271202316       -1.9101043730
 H         -4.7441314086        1.9741247630       -2.0948676540
 H         -3.3395773799        1.1591843362       -2.7720042548
 H         -6.1668374503        3.9072127676        0.5780513628
 H         -5.6951779470        3.0991230358       -0.9005782923
 H         -4.8102626900        2.3817491839        1.9331042703
 H         -6.0935906682        1.5870243779        1.0430869591
 O         -3.9554349402        0.1929416116        1.5316687865
 C         -3.1384398813       -0.9202285240        1.4429315923
 O         -3.0349920844       -1.5696708523        2.5046529685
 O         -2.1264582621       -0.5608265032       -2.0066122375
 C         -1.6359808021       -2.4184577471        0.1289258802
 C         -0.2297526518       -2.0253487775       -0.2573314955
 C          0.5333550979       -2.7375566533       -1.1732048193
 C          1.8264918197       -2.3408352680       -1.4679947961
 C          2.3863017385       -1.2325577185       -0.8603615504
 C          1.6371525642       -0.5199612477        0.0669760523
 C          0.3454628038       -0.9243770875        0.3654913959
 H         -0.2345454069       -0.3699648354        1.0946439895
 N          2.1969092954        0.6133724394        0.6862884705
 S          3.6710227838        0.4195788840        1.4707503889
 O          3.8371515294       -0.9318603643        1.9541560036
 O          3.7108030812        1.4681981505        2.4668912569
 C          4.8782245275        0.7707348573        0.2103693639
 C          4.8152965041        1.9939746534       -0.4278687617
 C          5.7535195297        2.2875744376       -1.4044069768
 C          6.7345013557        1.3597908918       -1.7220852806
 C          6.7856794618        0.1373032903       -1.0699973355
 C          5.8494368895       -0.1632655617       -0.0927194162
 H          5.8460603606       -1.1023596491        0.4372187458
 H          7.5489683579       -0.5824440269       -1.3185397131
 H          7.4633573392        1.5914431545       -2.4826307461
 H          5.7166065585        3.2369471961       -1.9140034753
 H          4.0393756291        2.6873068319       -0.1488887703
 H          1.5481160850        1.1066744340        1.2826713189
 H          3.3895879771       -0.9155880405       -1.0937845441
 H          2.4052410486       -2.9013424967       -2.1860816806
 H          0.1144158865       -3.6031677810       -1.6592940354
 H         -1.5987397849       -2.8456980656        1.1426587180
 C         -2.2555956632       -3.4371651735       -0.8059125572
 C         -2.0404762832       -4.9027586420       -0.5807910094
 C         -3.3783270256       -4.2896934211       -0.2988244756
 H         -4.2000128028       -4.5105128141       -0.9633509768
 H         -3.6750260536       -4.1547766217        0.7315880593
 H         -1.9469034598       -5.5487597493       -1.4407086063
 H         -1.4313141486       -5.1959551503        0.2610333543
 H         -2.3215943592       -3.0769367166       -1.8259959171
