  62
        -98.93915260
 C          1.0384415732        1.3333017031        0.5685612768
 C          1.6164090712        0.8838271992       -0.6430247391
 C          2.5354907448       -0.2614412313       -0.5286793586
 C          2.6844977390       -0.8706933759        0.6607938816
 C          3.6494116457       -1.9831508062        0.9585372638
 C          5.0712402129       -1.4085953940        1.1240762078
 C          6.0606085728       -1.8566586619        0.0476370754
 H          6.9484724077       -1.2271671744        0.1378866639
 H          6.3654584152       -2.8852331971        0.2520999872
 C          5.5529705994       -1.7982531189       -1.3967287630
 H          6.4288264544       -1.8845029510       -2.0433840433
 H          4.9295465609       -2.6695683697       -1.6027701373
 C          4.7763932504       -0.5339275545       -1.7872584679
 H          5.0643643474       -0.2603422349       -2.8043444623
 H          5.0539741857        0.3012582496       -1.1438202268
 C          3.2442927734       -0.6953099343       -1.7817122859
 H          2.8240705859       -0.0673437274       -2.5729004687
 H          2.9883970333       -1.7323643744       -2.0143571720
 H          5.0028031108       -0.3186734933        1.1260482993
 H          5.4711499444       -1.6986559711        2.0968765641
 H          3.3225454013       -2.4598150026        1.8826093095
 H          3.6318986911       -2.7195190557        0.1584334576
 O          2.0126540406       -0.4834749908        1.7760889545
 C          1.1929629575        0.6294402688        1.7635862434
 O          0.6555902258        0.8845357196        2.8618171874
 H         -1.6578983456        0.9329830238        1.6016803042
 C         -1.9910139794        1.3286995338        0.6502038291
 C         -1.1747189722        2.2298022231       -0.0246648671
 C         -1.6020021735        2.7243753890       -1.2487932328
 C         -2.8167231146        2.3222708447       -1.7804572506
 C         -3.6284403247        1.4291020264       -1.1049772849
 C         -3.2068754822        0.9292088600        0.1209718395
 N         -4.0206055692       -0.0019269919        0.8093097786
 S         -4.1271869955       -1.5115016422        0.0916403557
 O         -4.7770974400       -1.3699070215       -1.1854345449
 O         -4.7853674004       -2.3619110809        1.0564340902
 C         -2.4376167047       -2.0367227062       -0.1347813700
 C         -1.7235161456       -1.5545672524       -1.2138375780
 C         -0.3961065498       -1.9239428491       -1.3558446624
 C          0.1880981073       -2.7681289306       -0.4245810191
 C         -0.5393630396       -3.2379191670        0.6574097299
 C         -1.8640584934       -2.8629564176        0.8105013216
 H         -2.4674101342       -3.2067621673        1.6355511253
 H         -0.0771450122       -3.8895817519        1.3814284783
 H          1.2188332588       -3.0609861745       -0.5423021898
 H          0.1782594188       -1.5417180750       -2.1846237211
 H         -2.2104951179       -0.9081593591       -1.9255954417
 H         -3.7413176476       -0.1226280075        1.7736656445
 H         -4.5679697319        1.0941509069       -1.5133769680
 H         -3.1356986557        2.7114424421       -2.7354412857
 H         -0.9788589394        3.4135344308       -1.7938457308
 C          0.1521144409        2.5695633291        0.6081737727
 H         -0.0326231451        2.7686186756        1.6732478453
 C          0.8373346485        3.7744241032        0.0018773436
 C          0.3283197779        5.1467048856        0.3217887752
 C          1.6354428648        4.6812320893        0.8877417579
 H          2.5478686567        5.1084166486        0.4995215474
 H          1.6806059625        4.4412213652        1.9403609167
 H         -0.5155828268        5.2223736760        0.9909214733
 H          0.3428866579        5.8971099299       -0.4537350893
 H          1.2209188884        3.5925304597       -0.9939258929
 O          1.3953205956        1.4102257061       -1.7634613283
