  62
        -98.94492135
 C         -1.9627921966       -0.8524440170        0.0703961527
 C         -2.2556138779        0.1141302598        1.0597425224
 C         -2.3481069944        1.5032950712        0.5947237932
 C         -2.1206119570        1.7774207270       -0.7030409130
 C         -2.2130953219        3.1435930329       -1.3182890359
 C         -3.6256568736        3.4232632056       -1.8506960700
 C         -4.7357667758        3.1121563228       -0.8468875065
 H         -5.6846598671        3.3735787422       -1.3199139308
 H         -4.7537333427        2.0361234220       -0.6599220975
 C         -4.6083763272        3.8555891530        0.4899832421
 H         -3.9336409381        4.7049884345        0.3786298627
 H         -5.5878242574        4.2518196454        0.7655601107
 C         -4.1364802067        2.9853955566        1.6562860250
 H         -4.7518935321        2.0841906146        1.7137601269
 H         -4.2879029455        3.5456273692        2.5827137442
 C         -2.6633427388        2.5586090719        1.6175316552
 H         -2.0266845249        3.4344692927        1.4734476210
 H         -2.4171941270        2.1155622332        2.5873149487
 H         -3.6811957714        4.4728395246       -2.1449258945
 H         -3.7861907067        2.8105248757       -2.7406208250
 H         -1.9377817145        3.8882587732       -0.5736404715
 H         -1.5018297553        3.1921896510       -2.1447563987
 O         -1.8271653334        0.8241242261       -1.6234985322
 C         -1.7267515632       -0.5092473651       -1.2610366944
 O         -1.4434363473       -1.2786231176       -2.1998379253
 O         -2.4288138233       -0.1731255292        2.2768318000
 C         -1.7952243822       -2.3036120499        0.4821894359
 C         -0.3944695837       -2.7582407806        0.1509269876
 C         -0.1013188568       -3.9897728132       -0.4200202319
 C          1.2057295727       -4.3210231597       -0.7342310302
 C          2.2393604878       -3.4336273384       -0.5001810402
 C          1.9581640038       -2.2066401443        0.0913695632
 C          0.6541214740       -1.8907865521        0.4305601726
 H          0.4489086009       -0.9332453743        0.8884277583
 N          2.9833919529       -1.2838379838        0.3685074047
 S          2.6221629069        0.3616991125        0.2351841548
 O          2.0062888450        0.8019156476        1.4630782296
 O          1.8906220521        0.6254784153       -0.9835825541
 C          4.2715209282        1.0328198520        0.1271232571
 C          4.7919692569        1.3642817886       -1.1093839116
 C          6.0873804885        1.8525429368       -1.1825988002
 C          6.8370970305        1.9965137303       -0.0249135251
 C          6.3008182884        1.6600888595        1.2093548940
 C          5.0059942365        1.1728956473        1.2897418606
 H          4.5421874383        0.9068628193        2.2251806168
 H          6.8855116961        1.7759072979        2.1075546814
 H          7.8448010692        2.3760692910       -0.0849181615
 H          6.5050440745        2.1179200738       -2.1403857477
 H          4.1678900564        1.2415408011       -1.9802954334
 H          3.8466771510       -1.5084709460       -0.1082190294
 H          3.2538503967       -3.6837253476       -0.7709374053
 H          1.4193114445       -5.2778798677       -1.1859771476
 H         -0.8973926377       -4.6842832254       -0.6330313805
 H         -1.9127502284       -2.3139482872        1.5767490250
 C         -2.8749517830       -3.1677369091       -0.1347981983
 C         -3.3593089728       -4.3967224696        0.5734583978
 C         -4.2349743521       -3.1836596323        0.4941644488
 H         -5.1006522641       -3.2100806346       -0.1504144462
 H         -4.3727303179       -2.5904203403        1.3865267387
 H         -3.6282746979       -5.2594679904       -0.0170399332
 H         -2.9097998775       -4.6339062841        1.5258046504
 H         -2.8230417323       -3.1828294469       -1.2177935199
