  62
        -98.93676964
 C          0.5149283401        1.9883129706        0.2132439090
 C          1.1257401200        1.2897575907       -0.8547352311
 C          2.3542914402        0.5294043609       -0.5302213113
 C          2.8800381304        0.6173131710        0.7034995886
 C          4.1170847506       -0.0411259187        1.2608947384
 C          5.3538089105       -0.0677419085        0.3504174782
 C          5.6883793306       -1.4637139685       -0.1779334618
 H          6.7490041006       -1.4950130183       -0.4366979520
 H          5.5271591909       -2.1870099285        0.6239923782
 C          4.8997985005       -1.8971558587       -1.4129782617
 H          5.2554930103       -1.3418460587       -2.2836494217
 H          5.1163067707       -2.9529798287       -1.5915716217
 C          3.3831790105       -1.7183356889       -1.3156696714
 H          3.0257407007       -2.0049189590       -0.3268613713
 H          2.9149965305       -2.4019022891       -2.0281183913
 C          2.9080667602       -0.2978757090       -1.6577874114
 H          3.7107583800        0.2589271111       -2.1503613315
 H          2.0935517101       -0.3553063192       -2.3880640412
 H          5.2216148102        0.6286241014       -0.4761363418
 H          6.2057864105        0.2829260816        0.9351273880
 H          4.3422239507        0.5122416214        2.1756458783
 H          3.8635650709       -1.0596655988        1.5663434785
 O          2.2936071805        1.3615135710        1.6850671987
 C          1.0994176903        2.0254284208        1.4820905389
 O          0.6697990904        2.6199961607        2.4900981089
 H         -1.4087006799        0.4467672802       -1.2789205607
 C         -2.1262493598        0.6699354701       -0.5048863005
 C         -1.9735442998        1.7999561202        0.2876426094
 C         -2.9250430697        2.0646263100        1.2661870796
 C         -4.0073570495        1.2225625099        1.4449650598
 C         -4.1503128995        0.0918727798        0.6621779498
 C         -3.2017539696       -0.1869608201       -0.3154882803
 N         -3.3242464595       -1.3372247301       -1.1153298303
 S         -1.9990574394       -2.3461935699       -1.2906737404
 O         -1.0566020796       -1.7927073098       -2.2245948506
 O         -2.5742407492       -3.6250997000       -1.6519137603
 C         -1.2992751291       -2.4396547697        0.3466811094
 C         -0.1910824792       -1.6818507395        0.6615685392
 C          0.2916581811       -1.7099822794        1.9604797491
 C         -0.3373565786       -2.4936603994        2.9150217893
 C         -1.4455003286       -3.2575717697        2.5800160395
 C         -1.9370229388       -3.2271421398        1.2856297796
 H         -2.7904154387       -3.8117381499        0.9824402698
 H         -1.9276067883       -3.8700269797        3.3247230296
 H          0.0418774915       -2.5075787993        3.9246472092
 H          1.1477804510       -1.1075407892        2.2222919290
 H          0.2769370506       -1.0859199795       -0.1056203609
 H         -4.1505616494       -1.8843428703       -0.9180791901
 H         -4.9897666993       -0.5719651403        0.8023407900
 H         -4.7399950994        1.4425237998        2.2061196999
 H         -2.8044029798        2.9338451001        1.8955558195
 C         -0.8027874500        2.7360979904        0.0934257892
 H         -0.8106369900        3.4523007904        0.9266892391
 C         -0.9621929004        3.5130149003       -1.1989749408
 C         -1.8795097806        4.6971338301       -1.2246226307
 C         -0.3957623007        4.8958759204       -1.2979164610
 H          0.0419777891        5.2059384504       -2.2348415411
 H          0.1095035094        5.2917484805       -0.4286333911
 H         -2.4663510908        4.8725682100       -2.1131229506
 H         -2.3801294205        4.9647623801       -0.3064639107
 H         -0.9152687304        2.8917335003       -2.0834352908
 O          0.6878823198        1.2725104205       -2.0354513010
