  62
        -98.94116166
 C          2.3789202698       -1.1016643539        0.3232133528
 C          3.7075269253       -1.1291169913       -0.1668661227
 C          4.6197829397       -0.1299835079        0.3990101808
 C          4.1686443900        0.7371714795        1.3237118932
 C          4.9816960840        1.8031840443        2.0070223768
 C          5.1087688990        3.1040111165        1.2022561455
 C          6.0287698424        3.0283396265       -0.0169304956
 H          6.1963784909        4.0528077853       -0.3551841815
 H          6.9952480512        2.6222106932        0.2831275046
 C          5.4646053764        2.2094947827       -1.1864567563
 H          4.3875160676        2.0798659806       -1.0548077984
 H          5.6072036916        2.7602702328       -2.1190192867
 C          6.1109417696        0.8360723948       -1.3679636817
 H          7.1635807217        0.9587058002       -1.6322600326
 H          5.6121496353        0.3298722968       -2.1983634464
 C          6.0192920026       -0.0724602015       -0.1350820928
 H          6.3025433302       -1.0846681424       -0.4337781202
 H          6.7074856163        0.2705644826        0.6369606576
 H          4.1109840485        3.4187299850        0.8870812653
 H          5.4996969447        3.8680206317        1.8782479677
 H          4.4716651947        2.0284069424        2.9460617884
 H          5.9754266847        1.4165749815        2.2348548902
 O          2.8849848451        0.7285215945        1.7718071461
 C          1.9551569957       -0.1742949681        1.2748937896
 O          0.8157872576       -0.0540377368        1.7653853660
 H         -1.2863576437       -1.7425336424        0.3951021408
 C         -0.9988966504       -1.2346601038       -0.5118520775
 C          0.3034397681       -1.3300550453       -0.9720516441
 C          0.6514595614       -0.6453316478       -2.1341583349
 C         -0.2817189861        0.1137742422       -2.8126113105
 C         -1.5831038535        0.2078319396       -2.3490509956
 C         -1.9387482967       -0.4659659771       -1.1895400629
 N         -3.2627711744       -0.3992384745       -0.7136842713
 S         -4.0404261840        1.0997398198       -0.7380682332
 O         -4.4630981735        1.3718534178       -2.0897315025
 O         -3.2131373404        2.1128862924       -0.1210632019
 C         -5.4624331449        0.7455190995        0.2755557383
 C         -6.5823344614        0.1922656555       -0.3155411714
 C         -7.6774681652       -0.1105483659        0.4777883321
 C         -7.6343083002        0.1424206538        1.8407921474
 C         -6.5033821452        0.6987736031        2.4195762521
 C         -5.4038963630        1.0027193279        1.6321390416
 H         -4.5067603768        1.4429804092        2.0383652649
 H         -6.4729287481        0.8964333973        3.4790716640
 H         -8.4879096415       -0.0929918356        2.4566053604
 H         -8.5593174511       -0.5413916708        0.0318645129
 H         -6.5724401138        0.0219602597       -1.3792966411
 H         -3.3459476795       -0.8165497883        0.2040202207
 H         -2.3179099052        0.8067068426       -2.8620395176
 H          0.0032453655        0.6419288583       -3.7105001509
 H          1.6705732427       -0.7092617490       -2.4910397416
 C          1.3770547491       -2.0955668501       -0.2393487936
 H          1.9378721225       -2.6873713922       -0.9763395389
 C          0.8582930353       -3.0232447125        0.8379187238
 C          0.2162166072       -4.3217257657        0.4531984050
 C          1.5721166718       -4.3159345682        1.0908784424
 H          1.6658710488       -4.6607776049        2.1097117035
 H          2.4304762151       -4.5392326200        0.4745008716
 H         -0.6218917088       -4.6759381078        1.0338232520
 H          0.1514756887       -4.5510339052       -0.5995500750
 H          0.4698944951       -2.4947086984        1.7008757963
 O          4.1109776601       -1.9510882844       -1.0321727214
