  62
        -98.93801651
 C         -2.3945160813       -1.2093702101       -0.0981936985
 C         -3.1621165991       -0.4851910226        0.8399895673
 C         -4.0035116890        0.6081220734        0.3148902837
 C         -3.9865684846        0.8570157376       -1.0082192966
 C         -4.7186636053        1.9365573814       -1.7600373299
 C         -4.0698306637        3.3201420652       -1.5891852543
 C         -3.6373470606        3.6570574556       -0.1643117332
 H         -2.9410475169        2.8940179515        0.1895875840
 H         -3.0898397794        4.6028321773       -0.1976073479
 C         -4.7748008055        3.8119616905        0.8424957812
 H         -5.4410307659        4.6106887121        0.5089924745
 H         -4.3291836573        4.1258207681        1.7901628407
 C         -5.6129823108        2.5589115961        1.1032532731
 H         -6.3112822569        2.3793774325        0.2904279400
 H         -6.2171725410        2.7520455178        1.9945671350
 C         -4.8048429489        1.2976671377        1.3931123854
 H         -4.0992296627        1.5038426257        2.2064586249
 H         -5.4841995565        0.5333706836        1.7900926313
 H         -3.1802130943        3.3554852592       -2.2227327909
 H         -4.7696371519        4.0767821586       -1.9473776134
 H         -4.6798883240        1.6635051332       -2.8167345868
 H         -5.7624143240        1.9568690440       -1.4612881220
 O         -3.2157560279        0.1404209730       -1.8754752869
 C         -2.4044035016       -0.8981780086       -1.4574182582
 O         -1.7586671863       -1.4495604757       -2.3676628257
 O         -3.1412495254       -0.7294557378        2.0785887100
 C         -1.5093662201       -2.3421366655        0.3856560091
 C         -0.0624564822       -2.0552551741        0.0651647433
 C          0.8081710814       -3.0061967509       -0.4502437570
 C          2.1294364675       -2.6815391980       -0.7067276993
 C          2.6116908594       -1.4107569708       -0.4552379331
 C          1.7536564563       -0.4548226697        0.0732167698
 C          0.4333068733       -0.7851334238        0.3345432700
 H         -0.2325872645       -0.0384503390        0.7513174939
 N          2.2322293410        0.8440289190        0.3260762244
 S          3.6056738627        0.9978016925        1.2826234816
 O          3.7258702575       -0.1012364229        2.2126199751
 O          3.5181582370        2.3217874035        1.8594535063
 C          4.9494433295        0.9619736086        0.1158779019
 C          5.9503195567        0.0192144333        0.2454914152
 C          6.9917635885        0.0182086179       -0.6695436899
 C          7.0136073053        0.9549624054       -1.6914312029
 C          6.0016588127        1.8966679289       -1.8060379877
 C          4.9585319180        1.9040706982       -0.8940101886
 H          4.1554452382        2.6203606979       -0.9450413889
 H          6.0219231856        2.6235345444       -2.6020338875
 H          7.8241344952        0.9519340864       -2.4029664200
 H          7.7798409549       -0.7123118683       -0.5818844643
 H          5.8882258038       -0.6925273466        1.0531958201
 H          1.5156559175        1.4825851636        0.6400634962
 H          3.6371645329       -1.1521696708       -0.6625557380
 H          2.7922975579       -3.4297276808       -1.1136889814
 H          0.4516589334       -4.0020515594       -0.6555782368
 H         -1.6169320484       -2.3499949233        1.4813243634
 C         -2.0014923189       -3.6661578702       -0.1602284952
 C         -1.8021243354       -4.9289023490        0.6219175963
 C         -3.1701021666       -4.3294590061        0.5028674257
 H         -3.9015690219       -4.8259444988       -0.1168286115
 H         -3.5923702362       -3.8386643441        1.3678408695
 H         -1.5965391970       -5.8419244540        0.0838567610
 H         -1.2976814398       -4.8534503946        1.5734876445
 H         -1.9453648630       -3.7156192643       -1.2418124639
