  62
        -98.94634998
 C         -1.6050623582       -1.0608072595        0.0619594981
 C         -2.6940271274       -0.8287732664        0.9394498588
 C         -3.4209930898        0.4324833552        0.7472007784
 C         -2.9937561222        1.3009131827       -0.1874035360
 C         -3.6591479445        2.6064544722       -0.5111746396
 C         -4.6976840598        2.4380130773       -1.6292206666
 C         -5.6636642115        1.2745464441       -1.4052922423
 H         -6.3668308512        1.2705233054       -2.2410429956
 H         -5.1078523033        0.3350896507       -1.4496199752
 C         -6.4418568287        1.3400833373       -0.0836648896
 H         -6.4106797193        2.3547478195        0.3149896217
 H         -7.4891268394        1.1025382300       -0.2823193156
 C         -5.9584816734        0.3599109551        0.9870153666
 H         -5.9004841030       -0.6458992287        0.5630720287
 H         -6.7044999900        0.3347251371        1.7857965841
 C         -4.6070036909        0.6903855128        1.6331413414
 H         -4.6105866089        1.7239826226        1.9847132577
 H         -4.4829245136        0.0336095213        2.4990900839
 H         -5.2612513242        3.3683720562       -1.7202810563
 H         -4.1698030871        2.2674053253       -2.5704006282
 H         -4.1360349467        2.9972566436        0.3854571540
 H         -2.8957550507        3.3122756284       -0.8425022855
 O         -1.9229291793        1.0611911660       -0.9849298101
 C         -1.2171239804       -0.1317190421       -0.9033205606
 O         -0.2915354012       -0.2272399661       -1.7310586645
 H          1.4971714097       -2.0802749050       -1.2343588512
 C          1.6301097880       -1.8292660945       -0.1944007152
 C          0.5717588878       -1.9570111242        0.6905537581
 C          0.7716140235       -1.6067039722        2.0235370014
 C          1.9987858695       -1.1408231763        2.4563689369
 C          3.0463336245       -0.9879241239        1.5639609405
 C          2.8510178682       -1.3234634569        0.2313136766
 N          3.8890487660       -1.1156565140       -0.6947096201
 S          4.6848812425        0.3545027646       -0.6130950109
 O          5.1070159185        0.6385965699       -1.9675493433
 O          5.7478464291        0.2658476243        0.3591503881
 C          3.4869997697        1.5623916920       -0.0646053643
 C          2.2563318833        1.6303233437       -0.6864634274
 C          1.3405494030        2.5762855844       -0.2544399859
 C          1.6682306401        3.4402508243        0.7783975342
 C          2.9116454626        3.3647294186        1.3869863243
 C          3.8290378430        2.4162467140        0.9652743886
 H          4.8021843870        2.3150743976        1.4179843942
 H          3.1659990172        4.0376731720        2.1899831357
 H          0.9494557249        4.1730843485        1.1101047461
 H          0.3712461124        2.6158271131       -0.7267878912
 H          1.9951610908        0.9478982954       -1.4797802269
 H          3.6217101331       -1.3210560672       -1.6468202609
 H          4.0056216584       -0.6081082483        1.8770522108
 H          2.1400282658       -0.8802730720        3.4941103911
 H         -0.0562338436       -1.6908849077        2.7136218096
 C         -0.8100459423       -2.3461000121        0.2299278192
 H         -1.3065688003       -2.8942571549        1.0414247196
 C         -0.8335263381       -3.1973845318       -1.0214860431
 C         -0.4047766574       -4.6313015206       -0.9435433426
 C         -1.8502072585       -4.2909067615       -1.1439245463
 H         -2.2949610377       -4.4744304960       -2.1106350982
 H         -2.5297325947       -4.4365752721       -0.3170594961
 H          0.1443181922       -5.0528268970       -1.7717034071
 H         -0.1012634351       -5.0073983291        0.0216641438
 H         -0.5962974365       -2.6450408229       -1.9228595302
 O         -3.0402027204       -1.6392880270        1.8392237604
