  62
        -98.93894919
 C          2.1870089075        1.0408838908        0.4696503590
 C          2.3003733327        0.1997413370       -0.6614902564
 C          3.1049830644       -1.0239162199       -0.4863873290
 C          3.6401185106       -1.2894832394        0.7178834316
 C          4.5311883291       -2.4417666439        1.0913573014
 C          6.0121435716       -2.0483325296        0.9558061431
 C          6.6090928281       -2.2569396928       -0.4353254493
 H          7.6113404307       -1.8226410808       -0.4266948072
 H          6.7173265591       -3.3273759832       -0.6220760210
 C          5.8154113626       -1.6376884312       -1.5886897338
 H          6.4924835024       -1.5233089312       -2.4373371088
 H          5.4763570114       -0.6387568384       -1.3085194459
 C          4.6156823907       -2.4927479838       -2.0235703415
 H          4.6503194002       -2.6416898565       -3.1047607197
 H          4.7001531844       -3.4816850132       -1.5732006448
 C          3.2362806660       -1.8967609016       -1.7045445795
 H          2.9122002387       -1.2614296029       -2.5350794886
 H          2.5023951063       -2.7072703079       -1.6324105907
 H          6.5967725695       -2.6363069392        1.6661649671
 H          6.1069377982       -0.9983093760        1.2441661669
 H          4.3254506293       -2.6674565006        2.1399147750
 H          4.2993869905       -3.3179962782        0.4931187995
 O          3.4685341860       -0.4715502818        1.7937109014
 C          2.7462807756        0.7041981885        1.7009259195
 O          2.6661714284        1.3473296007        2.7678906669
 H         -0.1733779987        0.5108117253        1.4942986782
 C         -0.6983473975        1.0310787716        0.7012860678
 C         -0.0348731899        2.0283743195       -0.0033177589
 C         -0.7180774070        2.6882406201       -1.0155851012
 C         -2.0237882513        2.3421666893       -1.3193721166
 C         -2.6771415738        1.3444750684       -0.6200707779
 C         -2.0048586341        0.6818234072        0.3988667165
 N         -2.6640400677       -0.3238911734        1.1293822655
 S         -3.4137554364       -1.5590209622        0.2704470889
 O         -3.4414253357       -2.6844446108        1.1800703596
 O         -2.7806510094       -1.7812566025       -1.0086894773
 C         -5.0754930432       -0.9622133929        0.0390601526
 C         -5.5985353137       -0.8546106887       -1.2345924969
 C         -6.8964036859       -0.3921394233       -1.3886898222
 C         -7.6437751269       -0.0483371633       -0.2726849666
 C         -7.1044841660       -0.1650467034        0.9999056465
 C         -5.8083721875       -0.6277848633        1.1610143266
 H         -5.3533409444       -0.7379681467        2.1311460226
 H         -7.6887939283        0.1026522875        1.8654486100
 H         -8.6527751798        0.3123480186       -0.3954214894
 H         -7.3172423886       -0.3012864292       -2.3771779107
 H         -4.9774804357       -1.1287847318       -2.0726621207
 H         -2.1026301175       -0.7105609089        1.8748001204
 H         -3.6914924157        1.0690830120       -0.8579437845
 H         -2.5400874297        2.8574971129       -2.1148358778
 H         -0.2253652679        3.4657333581       -1.5755427728
 C          1.3938367197        2.3325112332        0.3789375093
 H          1.3904190619        2.7573273035        1.3936370234
 C          2.0813568302        3.3060876416       -0.5549786137
 C          1.9203382385        4.7824752183       -0.3566545644
 C          3.2250413639        4.1207509987       -0.0325663153
 H          4.0707111462        4.2976796084       -0.6800404126
 H          3.4915363307        3.9907425040        1.0065757580
 H          1.8731320511        5.4178919813       -1.2280251349
 H          1.3025320720        5.1118027242        0.4649209824
 H          2.1580553083        2.9274031396       -1.5676297226
 O          1.7648032780        0.4588088415       -1.7708486457
