  62
        -98.94141430
 C          2.4074492188        0.0523131877       -0.2594699076
 C          1.5442217835        0.4936370797        0.7693277054
 C          1.1383738686        1.9118488199        0.7332488444
 C          1.5375740732        2.6749249403       -0.2993064637
 C          1.1653438730        4.1097004318       -0.5481667346
 C         -0.2537147101        4.2576679932       -1.1380922659
 C         -1.2763748692        3.2214029476       -0.6681678941
 H         -0.8734137859        2.2185459238       -0.8252528531
 H         -2.1531041415        3.3013544075       -1.3180242562
 C         -1.7541398217        3.3743114831        0.7758589649
 H         -2.3665435104        2.5011376246        1.0164562258
 H         -2.3933070731        4.2589108766        0.8398599365
 C         -0.6584641383        3.5189620432        1.8290445362
 H         -1.1500232465        3.5830767216        2.8042894106
 H         -0.1316582901        4.4584817934        1.6826551283
 C          0.3256777088        2.3542792533        1.9247633867
 H         -0.2180071542        1.4608354999        2.2456702665
 H          1.0406652144        2.5792885380        2.7266133247
 H         -0.1745983569        4.1568456766       -2.2229270393
 H         -0.6222868602        5.2611010983       -0.9187116238
 H          1.2704962836        4.6713851040        0.3766898265
 H          1.8846797382        4.5096008976       -1.2658506933
 O          2.3153194158        2.1952928648       -1.3089558658
 C          2.7640844418        0.8885003251       -1.3187533956
 O          3.4635353475        0.5912771286       -2.3094932615
 H          0.5955051874       -1.3010251384       -1.6755424399
 C          0.5578731595       -2.0724724955       -0.9200819789
 C          1.6694031118       -2.2927891363       -0.1155362448
 C          1.6068097908       -3.2951677173        0.8428968860
 C          0.4467340834       -4.0339688440        1.0037895453
 C         -0.6754354367       -3.7732050310        0.2388374337
 C         -0.6206668288       -2.7731372774       -0.7264278969
 N         -1.7399628645       -2.4620338437       -1.5232885934
 S         -2.3161550400       -0.8924942520       -1.5884411647
 O         -3.4110132522       -0.9407133906       -2.5337939791
 O         -1.2437608670        0.0165395116       -1.8998955733
 C         -2.9761759774       -0.5484164353        0.0344799477
 C         -2.1226598824       -0.5002210606        1.1185568957
 C         -2.6559211012       -0.2574664307        2.3757784956
 C         -4.0196645337       -0.0620799197        2.5280891776
 C         -4.8626883791       -0.1122029197        1.4281281777
 C         -4.3387770760       -0.3628725615        0.1703310560
 H         -4.9539539628       -0.4143964214       -0.7133315776
 H         -5.9232586726        0.0412799557        1.5461184805
 H         -4.4251658077        0.1310672403        3.5086817175
 H         -1.9927065056       -0.2229510807        3.2257590592
 H         -1.0615328357       -0.6428714554        0.9838029159
 H         -2.5152824941       -3.1003551990       -1.4109615223
 H         -1.5878378812       -4.3308549094        0.3875794912
 H          0.4089363018       -4.8093550188        1.7537773906
 H          2.4544715446       -3.4815153722        1.4815490034
 C          2.8627875959       -1.3963849433       -0.3430119760
 H          3.1872338179       -1.5292431183       -1.3889860785
 C          4.0600978492       -1.7367815280        0.5307118621
 C          5.0526673359       -0.6830060127        0.9199793369
 C          4.1633321163       -1.2947697984        1.9582686121
 H          4.6061057176       -1.9735209412        2.6725085843
 H          3.3535556052       -0.7054231691        2.3567773842
 H          4.8528238416        0.3311948451        0.6045937084
 H          6.1011250050       -0.9411573730        0.9184538495
 H          4.4701905580       -2.7130656886        0.2906310229
 O          1.1148615258       -0.2564770602        1.6857179134
