  62
        -98.94200620
 C          1.3882783326        1.1592589239        0.6798660494
 C          2.2313979383        0.9164804570       -0.4325073003
 C          2.8241246040       -0.4297610197       -0.4961132068
 C          2.4963572473       -1.3625115140        0.4133017655
 C          2.9750465133       -2.7886538139        0.4402018384
 C          4.3472621858       -2.9799836809        1.1007175007
 C          5.5385637744       -2.4783085989        0.2838588150
 H          6.4405197206       -2.8691031948        0.7590216211
 H          5.4904938258       -2.8994241727       -0.7208417339
 C          5.6479750054       -0.9496603718        0.1984441865
 H          5.0320524939       -0.4968590500        0.9786909147
 H          6.6803208170       -0.6470580516        0.3875179322
 C          5.2433690539       -0.3604536496       -1.1528816301
 H          5.3242658665        0.7278064170       -1.0915620548
 H          5.9337113165       -0.7061977773       -1.9255004446
 C          3.8128760207       -0.7040236092       -1.5888097001
 H          3.7519436467       -1.7464998465       -1.9019669576
 H          3.5488000262       -0.0709195201       -2.4398077380
 H          4.3377596533       -2.4837809811        2.0738714968
 H          4.4778539838       -4.0506473494        1.2740486082
 H          2.9963733254       -3.1831333642       -0.5764447151
 H          2.2337885659       -3.3519218144        1.0116833857
 O          1.6411621373       -1.1076301780        1.4387426808
 C          1.0784068319        0.1468795724        1.5920269087
 O          0.3162856246        0.2457392139        2.5763747248
 O          2.4947889177        1.7512573101       -1.3351774603
 C          0.6339172748        2.4581135026        0.9296562262
 C         -0.8186804500        2.2583664454        0.5724664331
 C         -1.8400344410        2.7897887648        1.3509510383
 C         -3.1655682468        2.5703072185        1.0196208477
 C         -3.4968839089        1.7865467642       -0.0712407519
 C         -2.4821738260        1.2413604063       -0.8482691993
 C         -1.1562955321        1.5038342367       -0.5417899605
 H         -0.3817721561        1.0736903897       -1.1590789123
 N         -2.7611640729        0.3793710906       -1.9317661620
 S         -2.2417330176       -1.2043411202       -1.7278429629
 O         -0.8077422390       -1.2448211151       -1.6107046319
 O         -2.8203978386       -1.9354221461       -2.8342736902
 C         -3.0149007462       -1.7102446430       -0.2020607010
 C         -4.2549892227       -2.3179855955       -0.2532741360
 C         -4.8966950818       -2.6348859345        0.9327908944
 C         -4.2961361427       -2.3287690078        2.1451975803
 C         -3.0530241549       -1.7164027221        2.1795932088
 C         -2.4031766938       -1.4021230360        0.9961763541
 H         -1.4347195430       -0.9268030581        0.9994346280
 H         -2.5745412537       -1.4707193663        3.1143769051
 H         -4.7974853388       -2.5689396298        3.0694427078
 H         -5.8620291679       -3.1143120018        0.9091399759
 H         -4.6812041190       -2.5399528839       -1.2184074773
 H         -3.7361237052        0.3723000079       -2.2014666514
 H         -4.5296727761        1.5875910064       -0.3144489669
 H         -3.9486310637        2.9919169979        1.6306336361
 H         -1.5897620392        3.3602910063        2.2330763472
 H          0.6777291616        2.6308607821        2.0184191684
 C          1.2393385162        3.6770962349        0.2529338821
 C          0.6882607065        4.2600511223       -1.0097885707
 C          0.5259823108        4.9964284123        0.2841499727
 H          1.1095902434        5.8899338257        0.4459147628
 H         -0.4611214687        5.0262784249        0.7190844320
 H          1.3924347217        4.6268546154       -1.7405290858
 H         -0.1811344509        3.7913175057       -1.4455155755
 H          2.3175933312        3.7059773768        0.3624509722
