  62
        -98.93407330
 C         -2.4398211067       -1.3054983948       -0.1033103334
 C         -2.2907065905       -0.0072926408       -0.6410738090
 C         -3.5197925032        0.8027251292       -0.7723478847
 C         -4.6933448474        0.2685948671       -0.3859743215
 C         -6.0512234505        0.9180392347       -0.3812900814
 C         -6.2270986461        1.9087450992        0.7823688722
 C         -5.0247435027        2.8109317465        1.0502297025
 H         -5.2247346894        3.3665248511        1.9702657709
 H         -4.1435574067        2.1922751367        1.2317785380
 C         -4.7135878692        3.8253289421       -0.0476014884
 H         -5.5742865415        4.4847968455       -0.1802476046
 H         -3.8768088232        4.4360325409        0.3012388094
 C         -4.3391914816        3.2408268746       -1.4104422855
 H         -3.9378813747        4.0585569020       -2.0164724925
 H         -5.2187115880        2.8729361454       -1.9317757109
 C         -3.2586749305        2.1639848151       -1.3707039338
 H         -2.9174344017        1.9757880609       -2.3964675603
 H         -2.3792976350        2.5557566917       -0.8458812424
 H         -7.1076489391        2.5218038448        0.5841993969
 H         -6.4148381606        1.3304894134        1.6901434683
 H         -6.2346010898        1.4013627660       -1.3362133864
 H         -6.7831099040        0.1155176791       -0.2678643622
 O         -4.7875782086       -0.9919637301        0.1261632800
 C         -3.6825887713       -1.8035364486        0.2854578995
 O         -3.9278940761       -2.9239537260        0.7768455048
 H          1.4097228609       -1.4439758986       -0.3560567679
 C          1.0489011562       -1.2004928257        0.6281356145
 C         -0.2462181826       -1.5168013189        1.0045593600
 C         -0.6731080670       -1.1796048096        2.2872115215
 C          0.1713837992       -0.5276738187        3.1635770725
 C          1.4554993971       -0.1882741770        2.7740819166
 C          1.8945918723       -0.5267892765        1.5001402865
 N          3.2129215491       -0.2263428385        1.1030007731
 S          3.4901461524        0.4421890708       -0.4250665112
 O          2.7840154580        1.6969783405       -0.5606005735
 O          3.2468613905       -0.5561101772       -1.4336138161
 C          5.2440276661        0.7476788367       -0.3016893768
 C          5.6977582655        2.0272514424       -0.0444781065
 C          7.0618894519        2.2458133335        0.0688407347
 C          7.9443389535        1.1858565579       -0.0735637889
 C          7.4741247529       -0.0933216193       -0.3319854363
 C          6.1116637082       -0.3179825438       -0.4475757692
 H          5.7007934813       -1.2918888118       -0.6561419970
 H          8.1636961496       -0.9143255165       -0.4445043296
 H          9.0053755120        1.3582776473        0.0143659845
 H          7.4299748231        3.2397746843        0.2661428438
 H          4.9746922586        2.8216428925        0.0494664463
 H          3.6872011399        0.3402377641        1.7953643523
 H          2.1125180678        0.3342355866        3.4533630568
 H         -0.1740953931       -0.2710211308        4.1539059261
 H         -1.6834919663       -1.4318835591        2.5814011961
 C         -1.2265715384       -2.2002286309        0.0825730231
 H         -1.5942312700       -3.1071806399        0.5844835993
 C         -0.6403300154       -2.5899678541       -1.2570463817
 C          0.1597754787       -3.8501609755       -1.3839336100
 C         -1.2101376360       -3.7680583264       -1.9859064471
 H         -1.3011735858       -3.7140369596       -3.0603988417
 H         -2.0147451610       -4.3056739975       -1.5052376680
 H          1.0142559541       -3.8500563337       -2.0437241998
 H          0.2874361354       -4.4505053867       -0.4958422968
 H         -0.3392987114       -1.7336157424       -1.8505346716
 O         -1.1802715057        0.4716600357       -0.9959671760
