  62
        -98.94430636
 C         -2.6072451176       -1.1195165907        0.2080755279
 C         -2.7332303226       -0.3308934432       -0.9614262620
 C         -3.5933147955        0.8530006403       -0.8385504504
 C         -4.2100824697        1.1159297818        0.3279989211
 C         -5.1409080101        2.2672640536        0.5977884997
 C         -4.4284018240        3.5753308412        0.9683101389
 C         -3.7085217787        4.2735845936       -0.1862016339
 H         -4.3973611541        4.3926782113       -1.0228940601
 H         -3.4411477756        5.2735859184        0.1609943399
 C         -2.4356601582        3.5592148408       -0.6623348918
 H         -1.6299019005        4.2876460972       -0.7776879828
 H         -2.1131728483        2.8451804287        0.0994649100
 C         -2.5805025092        2.8268280617       -1.9965166355
 H         -1.6351760683        2.3236637779       -2.2158430648
 H         -2.7708640218        3.5504548725       -2.7920040139
 C         -3.6939799243        1.7714760621       -2.0187023590
 H         -4.6707249027        2.2537979890       -2.0456279417
 H         -3.5746410104        1.1666713080       -2.9207304760
 H         -5.1848284466        4.2576248246        1.3629156775
 H         -3.7162829403        3.3700409070        1.7713304896
 H         -5.7790282061        2.4326851825       -0.2706188553
 H         -5.7691277618        1.9678022934        1.4395059319
 O         -4.0660019236        0.3278688684        1.4279370062
 C         -3.2462538339       -0.7898915909        1.4020358984
 O         -3.1692027568       -1.3965965749        2.4911499325
 H         -0.3183344874       -0.2637768219        1.0320338283
 C          0.2637206596       -0.8746465512        0.3511173497
 C         -0.3182131319       -2.0080587310       -0.2035963554
 C          0.4476575399       -2.7908053601       -1.0576742838
 C          1.7500081273       -2.4320767335       -1.3601318105
 C          2.3169077168       -1.2926714778       -0.8204847462
 C          1.5650887818       -0.5089168976        0.0451388549
 N          2.1354960676        0.6548923561        0.5962016344
 S          3.5699169006        0.4717223784        1.4551601323
 O          3.6602610357       -0.8400904847        2.0544287989
 O          3.6144185842        1.5973144752        2.3631871281
 C          4.8390228606        0.6685179152        0.2225100007
 C          5.7716875307       -0.3318234283        0.0302223681
 C          6.7569637581       -0.1533635210       -0.9285378955
 C          6.7915950944        1.0155954558       -1.6733049890
 C          5.8486129116        2.0115317711       -1.4660861961
 C          4.8619602404        1.8403256493       -0.5082662280
 H          4.1133886437        2.5901493521       -0.3134701160
 H          5.8788337955        2.9191927923       -2.0470726929
 H          7.5582488352        1.1517498894       -2.4196271622
 H          7.4909998289       -0.9261378222       -1.0909001229
 H          5.7007691318       -1.2258195340        0.6288875012
 H          1.4818262164        1.2048323837        1.1349464214
 H          3.3273214902       -1.0049113831       -1.0608109097
 H          2.3305425646       -3.0475766142       -2.0301219901
 H          0.0233056500       -3.6822456919       -1.4893635505
 C         -1.7338771094       -2.3596069623        0.1880392416
 H         -1.7128543009       -2.7355793914        1.2223284105
 C         -2.3589314397       -3.4157804453       -0.7009537336
 C         -2.1779965343       -4.8710707933       -0.3937983778
 C         -3.5071215618       -4.2171420725       -0.1680276238
 H         -4.3225491466       -4.4569945766       -0.8336574463
 H         -3.8173286014       -4.0205972247        0.8483844046
 H         -2.0842648506       -5.5642742778       -1.2161263538
 H         -1.5889280548       -5.1306319704        0.4730250510
 H         -2.4013443318       -3.1099948732       -1.7399508291
 O         -2.1611939070       -0.5991625944       -2.0486759038
