  62
        -98.94423067
 C          1.8505562243        1.3469394540        0.1415616421
 C          2.0402942835        0.3680675424       -0.8640987031
 C          3.3925010078       -0.1991969455       -0.9592017653
 C          4.3597604894        0.2102142648       -0.1197441748
 C          5.7868831461       -0.2655950537       -0.1063948411
 C          6.0031133911       -1.5707966578        0.6717269066
 C          5.4735056658       -2.8318672547       -0.0121879907
 H          5.8584514813       -2.8804266204       -1.0313519163
 H          5.8819741079       -3.6864031683        0.5309517569
 C          3.9428403673       -2.9468492250       -0.0318897308
 H          3.5159431020       -2.2639968401        0.7066920996
 H          3.6495944487       -3.9574123926        0.2619901754
 C          3.3046065136       -2.6675515729       -1.3925438532
 H          2.2198493523       -2.7463234315       -1.2838231348
 H          3.6254292600       -3.4263424796       -2.1098535514
 C          3.6262092039       -1.2826396825       -1.9691605134
 H          4.6558420015       -1.2544151726       -2.3246749928
 H          2.9585502774       -1.1002773681       -2.8146907092
 H          5.5429924899       -1.4706332613        1.6575774927
 H          7.0793016344       -1.6882286905        0.8181166679
 H          6.3717481156        0.5218290997        0.3739264673
 H          6.1430686476       -0.3875524220       -1.1297172603
 O          4.1411256182        1.1523795539        0.8343648190
 C          2.8942988773        1.7307065564        0.9918117072
 O          2.8388916138        2.5744064151        1.9088276819
 O          1.1458473573       -0.0339174897       -1.6566191491
 C          0.5316115229        2.0662505046        0.3800738798
 C         -0.4444868223        1.2264750291        1.1678361850
 C         -1.0029602985        1.6962632683        2.3504529062
 C         -1.9322168389        0.9389466947        3.0432350842
 C         -2.3211031988       -0.3029114203        2.5730789449
 C         -1.7608375367       -0.7831601063        1.3972420614
 C         -0.8377210312       -0.0192239603        0.6998366780
 H         -0.4159108223       -0.3957470215       -0.2204084893
 N         -2.1648074857       -2.0439669891        0.8974344067
 S         -3.7476912536       -2.0820306111        0.3428269484
 O         -4.6380169895       -1.9926367704        1.4720780201
 O         -3.8565881229       -3.2754076530       -0.4650824733
 C         -3.8894611054       -0.6212796670       -0.6696609913
 C         -4.3296146583        0.5564959342       -0.1002318802
 C         -4.3478946047        1.7059297377       -0.8732331883
 C         -3.9249164791        1.6577823223       -2.1924911371
 C         -3.4818731061        0.4677584171       -2.7485455455
 C         -3.4574361743       -0.6838213474       -1.9791681549
 H         -3.1218254153       -1.6291735218       -2.3751577551
 H         -3.1485229714        0.4346155098       -3.7735180064
 H         -3.9424460964        2.5527965325       -2.7947760151
 H         -4.6863136265        2.6345262012       -0.4428041685
 H         -4.6521305961        0.5502419313        0.9279308384
 H         -1.5576276174       -2.3733695613        0.1589594997
 H         -3.0548410419       -0.9010755676        3.0888888651
 H         -2.3578343560        1.3189938899        3.9594416810
 H         -0.6979578412        2.6600001433        2.7311653118
 H          0.7843760307        2.9451499016        0.9877378390
 C         -0.1235855632        2.5441379200       -0.9030975388
 C         -1.0398347849        3.7273879092       -0.8526487899
 C          0.3057617707        3.8480650842       -1.5015654536
 H          0.3591187140        3.9277409198       -2.5768065329
 H          1.0750300215        4.4045759741       -0.9854841067
 H         -1.9152406569        3.7243055236       -1.4821882552
 H         -1.1844319337        4.2081072822        0.1028035924
 H         -0.3726173180        1.7405335702       -1.5834341314
