  62
        -98.94790674
 C         -0.9182717607       -1.0972098101        0.7042062895
 C         -1.4144445112       -0.8967026189       -0.6069091101
 C         -2.1483144108        0.3563513217       -0.8226792088
 C         -2.2867254699        1.2343794209        0.1867763720
 C         -2.9816886793        2.5677557313        0.1124228934
 C         -4.5051510093        2.4904070219        0.2828942540
 C         -5.2661771301        1.9068282532       -0.9080404961
 H         -6.3252503499        2.1159986835       -0.7447761754
 H         -4.9680273903        2.4276021438       -1.8186304458
 C         -5.0857932209        0.3940802732       -1.0963203974
 H         -6.0579832312       -0.0685773162       -1.2801959273
 H         -4.6906251606       -0.0435240277       -0.1768450979
 C         -4.1723696016        0.0046971937       -2.2589160181
 H         -4.0843342721       -1.0845105763       -2.2777138690
 H         -4.6218896519        0.3224609047       -3.2024241377
 C         -2.7573269013        0.5910356230       -2.1709766183
 H         -2.1237751919        0.0906239433       -2.9081167190
 H         -2.7737824409        1.6567539432       -2.4012998575
 H         -4.8651261187        3.5078459319        0.4520412150
 H         -4.7263460091        1.9052811712        1.1782947237
 H         -2.5773518586        3.1769243405        0.9237819037
 H         -2.7426559595        3.0519138419       -0.8355267364
 O         -1.7748450594        1.0135850597        1.4274579616
 C         -1.0761856198       -0.1492273909        1.7134189103
 O         -0.6485699893       -0.2167824920        2.8836435200
 H          1.4405344395       -0.3059931509        0.3338736390
 C          1.7914163688       -1.2247834007       -0.1133016219
 C          1.1033387484       -2.4054999906        0.1343317975
 C          1.5778867776       -3.5803914904       -0.4345466737
 C          2.6947161272       -3.5588651602       -1.2522678942
 C          3.3495817377       -2.3731397103       -1.5305444836
 C          2.8890371985       -1.1937089305       -0.9563732324
 N          3.5283179689        0.0329175693       -1.1935970117
 S          2.6089850095        1.4241329899       -1.3411075102
 O          1.3387573991        1.1737409210       -1.9803461998
 O          3.4860064996        2.3551644500       -2.0223110099
 C          2.3660302705        1.9875832987        0.3289478404
 C          3.4360181209        1.9847813075        1.2014771599
 C          3.2427247618        2.4440952965        2.4943079903
 C          1.9934601722        2.8988607168        2.8886186013
 C          0.9317174817        2.9025009680        1.9978505918
 C          1.1186570509        2.4444890389        0.7039033913
 H          0.3158314006        2.4111703099       -0.0175417583
 H         -0.0433330580        3.2424144182        2.3083070725
 H          1.8413660228        3.2482942060        3.8975746816
 H          4.0641071821        2.4422605556        3.1927000999
 H          4.3903742506        1.6198215173        0.8602289891
 H          4.2761807686        0.0026528095       -1.8714827821
 H          4.2055907473       -2.3555962202       -2.1877904340
 H          3.0511607666       -4.4776508900       -1.6928444651
 H          1.0682452973       -4.5111683303       -0.2463199642
 C         -0.1145098111       -2.3437183808        1.0252793281
 H          0.2278992494       -2.2271421217        2.0644570880
 C         -0.9891551417       -3.5772347703        0.9339634875
 C         -0.7251287519       -4.7619963011        1.8126803364
 C         -1.9161734513       -3.8897502508        2.0688270577
 H         -2.8990554616       -4.2743166401        1.8412997079
 H         -1.8932478806       -3.2272462915        2.9220872082
 H         -0.8935557325       -5.7497976507        1.4107217757
 H          0.1035508285       -4.6995886620        2.5016377161
 H         -1.3519414823       -3.7537365893       -0.0722062725
 O         -1.2569490121       -1.7199952482       -1.5456929209
