  62
        -98.93432752
 C         -1.6736367890       -1.8377580006        0.0437080717
 C         -1.4333288294       -0.4794012608       -0.2755873294
 C         -2.5747544497        0.4472220990       -0.1085601903
 C         -3.7508947796       -0.0251430810        0.3380433200
 C         -5.0448682898        0.7155758988        0.5635707493
 C         -4.9457566203        2.0744023594        1.2743410081
 C         -5.2341443806        3.2639979186        0.3567708171
 H         -6.0616052905        2.9995798978       -0.3050474327
 H         -5.5651187209        4.1052750590        0.9699530364
 C         -4.0489809607        3.7409533182       -0.4809197732
 H         -3.3245733609        4.2345535590        0.1702629665
 H         -4.4215491708        4.4921992175       -1.1812795539
 C         -3.3247585803        2.6487747378       -1.2707423722
 H         -2.8048360603        3.1279241772       -2.1028706026
 H         -4.0422770700        1.9531145172       -1.7043653017
 C         -2.2804352801        1.8834111188       -0.4444704515
 H         -1.3319094900        1.8481016886       -0.9888959514
 H         -2.0731910303        2.4208661496        0.4849114981
 H         -3.9656152504        2.1802313101        1.7366554581
 H         -5.6839841004        2.0833603299        2.0779927181
 H         -5.6625663797        0.0333084891        1.1521562598
 H         -5.5475783598        0.8369488278       -0.3992332709
 O         -3.9329622692       -1.3426389208        0.6430132711
 C         -2.9133989189       -2.2666802306        0.5245241120
 O         -3.2271467886       -3.4217288504        0.8759798029
 O         -0.3324293295       -0.0362935408       -0.6918794097
 C         -0.5885412687       -2.8992715903       -0.0473602573
 C          0.6792743711       -2.3692741094        0.5719200824
 C          0.7667135710       -2.2637192682        1.9561582823
 C          1.8891032807       -1.7200310774        2.5531395919
 C          2.9416808507       -1.2600989877        1.7816568316
 C          2.8573725708       -1.3507218489        0.3985334817
 C          1.7391885510       -1.9177789198       -0.1973065579
 H          1.6780978411       -1.9674349307       -1.2731022179
 N          3.9127494607       -0.8747011093       -0.4022340686
 S          4.4958345502        0.6720196411       -0.1436348499
 O          5.2995667802        0.9629511004       -1.3101239701
 O          5.1837857101        0.7114226824        1.1233765802
 C          3.0803355399        1.7544525107       -0.0995606809
 C          2.5062110397        2.0803260616        1.1115944288
 C          1.4036697994        2.9188046913        1.1236425080
 C          0.8985811494        3.4143947701       -0.0674352125
 C          1.4826293996        3.0709705092       -1.2762700122
 C          2.5815994999        2.2296286296       -1.2954023114
 H          3.0703585800        1.9480364489       -2.2143773011
 H          1.0824343996        3.4529405983       -2.2019750125
 H          0.0436300192        4.0721731098       -0.0556472931
 H          0.9426143193        3.1817474419        2.0625462677
 H          2.9335198097        1.6846488225        2.0183500891
 H          3.7491291909       -1.0100764402       -1.3898435685
 H          3.8198354505       -0.8234741871        2.2292450413
 H          1.9444398006       -1.6486457065        3.6290970519
 H         -0.0639517790       -2.6040178080        2.5597625525
 H         -0.9524042285       -3.7319186099        0.5756747234
 C         -0.3781694584       -3.4628062015       -1.4451383668
 C         -1.5495407782       -3.7136305426       -2.3459181067
 C         -0.5571318185       -2.6450258426       -2.6874280575
 H          0.1156559816       -2.8198380631       -3.5147732773
 H         -0.8517273689       -1.6137405926       -2.5745554184
 H         -1.5611750379       -4.6171579231       -2.9367136459
 H         -2.5238048184       -3.4138758426       -1.9879720670
 H          0.4112387718       -4.2085602912       -1.4623321361
