  62
        -98.94451892
 C         -1.9544237651        1.1090827511        0.1648113338
 C         -2.4300197853       -0.0407039911        0.8399430809
 C         -3.8832176045       -0.2484109443        0.7912567190
 C         -4.6681356063        0.6450961212        0.1623108649
 C         -6.1673294767        0.5823916185        0.0496240138
 C         -6.6703406297       -0.2992455966       -1.1017234125
 C         -6.5079193173       -1.8047291160       -0.8877472550
 H         -6.9389115446       -2.0825512330        0.0745846828
 H         -7.0934245569       -2.3033338788       -1.6627740605
 C         -5.0580195815       -2.3030549540       -0.9676110907
 H         -4.4386493467       -1.5472566369       -1.4558875320
 H         -5.0146045407       -3.2009940493       -1.5880341498
 C         -4.4329503128       -2.6554797579        0.3823345005
 H         -3.3952309499       -2.9546593471        0.2125466344
 H         -4.9613138509       -3.5051038353        0.8207097736
 C         -4.4320271181       -1.5045853789        1.3969802820
 H         -5.4389548775       -1.3375601426        1.7790434487
 H         -3.7818636434       -1.7828448968        2.2301816522
 H         -6.1548087911       -0.0040216402       -2.0184619456
 H         -7.7333703294       -0.0855401013       -1.2347235400
 H         -6.5087340986        1.6048720359       -0.1255679603
 H         -6.5911015383        0.2310630131        0.9907641219
 O         -4.1721916281        1.7541788899       -0.4485845427
 C         -2.8091115763        2.0002928477       -0.4836916640
 O         -2.4876851998        3.0287893081       -1.1129079026
 O         -1.6867163550       -0.8513459602        1.4515191683
 C         -0.4655300894        1.4073172243        0.1321601382
 C          0.2748097674        0.2277612893       -0.4491803874
 C         -0.1275008050       -0.2620952281       -1.6900584371
 C          0.4955605593       -1.3572928284       -2.2540305453
 C          1.5438321760       -1.9808175092       -1.5991910338
 C          1.9591097600       -1.4964356414       -0.3654379334
 C          1.3303971347       -0.3928936181        0.1984691797
 H          1.6615638786       -0.0538525122        1.1649322609
 N          3.0066184972       -2.1241438725        0.3264286458
 S          4.1953006037       -1.2292639350        1.0849981749
 O          5.2572991454       -2.1793625418        1.3320843548
 O          3.6627679565       -0.5542231496        2.2400798341
 C          4.7134568923       -0.0476090319       -0.1458334773
 C          5.5630049565       -0.4788664589       -1.1463209355
 C          5.9276357131        0.4082958472       -2.1455295409
 C          5.4319113749        1.7034794145       -2.1322398971
 C          4.5813847278        2.1209165811       -1.1205022990
 C          4.2159325939        1.2388935007       -0.1155508847
 H          3.5613416281        1.5286382593        0.6895088565
 H          4.1992104765        3.1293235493       -1.1098298083
 H          5.7121223781        2.3932401699       -2.9126947504
 H          6.5934030002        0.0887536295       -2.9309732922
 H          5.9353387248       -1.4899506679       -1.1136154870
 H          3.4043538761       -2.9199624243       -0.1503053302
 H          2.0261776838       -2.8435353335       -2.0329984203
 H          0.1649106663       -1.7303658043       -3.2117090714
 H         -0.9490999071        0.2241772156       -2.1990548030
 H         -0.3424785762        2.2616240921       -0.5494259362
 C          0.0132292426        1.8126798422        1.5100813443
 C          1.1634835809        2.7606882722        1.6597507020
 C         -0.2287239215        3.2148730554        1.9786537976
 H         -0.4990014691        3.3736844949        3.0118170320
 H         -0.7176080744        3.8892084879        1.2903696374
 H          1.8554790850        2.6068150714        2.4749393691
 H          1.6156633915        3.1401551436        0.7556362104
 H         -0.0949343863        1.0205845988        2.2426219380
