  62
        -98.94102227
 C          1.0678339445        1.3292772249       -0.1849289647
 C          1.9481102505        0.9374967279        0.8552724745
 C          2.8464982462       -0.2027472557        0.5959701464
 C          2.7821191157       -0.8122283537       -0.6020889278
 C          3.6273274869       -1.9440865872       -1.1238297045
 C          5.0428250698       -1.4922250617       -1.5174754887
 C          5.7256417852       -0.5680505715       -0.5128325529
 H          5.1139713294        0.3251034832       -0.3736218365
 H          6.6739043974       -0.2454646223       -0.9509564460
 C          6.0285275312       -1.1935900092        0.8468029592
 H          6.6025116043       -0.4604730810        1.4193884948
 H          6.6625628575       -2.0716012024        0.7045500384
 C          4.8121452353       -1.5997748566        1.6821544698
 H          5.1643509208       -1.7803646858        2.7019270621
 H          4.3917431541       -2.5386581636        1.3316771492
 C          3.7239173225       -0.5350966553        1.7782598409
 H          4.1751747202        0.4108541451        2.0981739888
 H          3.0353356200       -0.8102176582        2.5862041664
 H          4.9753409911       -0.9576371036       -2.4681930413
 H          5.6571249068       -2.3805993607       -1.6740300110
 H          3.1269666240       -2.3241097379       -2.0170684366
 H          3.6707300414       -2.7512684895       -0.3986453764
 O          1.9042009738       -0.4179386948       -1.5647310554
 C          1.0265755063        0.6339735494       -1.3925264755
 O          0.2869313243        0.8263765774       -2.3802265884
 O          1.9968561390        1.5305315745        1.9658432609
 C          0.1722658332        2.5248770291        0.0974657928
 C         -1.2072221616        2.0720754437        0.5086080979
 C         -1.7071341257        2.3401236035        1.7772097150
 C         -2.9586638094        1.8835175713        2.1549801014
 C         -3.7309824339        1.1388473396        1.2808343065
 C         -3.2342935166        0.8615412802        0.0145763241
 C         -1.9910033408        1.3373279992       -0.3696783464
 H         -1.6106539049        1.1074374567       -1.3538563065
 N         -3.9831687939        0.0403563562       -0.8641657602
 S         -4.0363476301       -1.5628655578       -0.3742823667
 O         -4.4553734628       -2.3204617513       -1.5311992226
 O         -4.8810927558       -1.6586565277        0.7889773732
 C         -2.3555818339       -1.9727631896        0.0661014782
 C         -1.5081126226       -2.4537655436       -0.9111139433
 C         -0.1918737831       -2.7312662125       -0.5803922523
 C          0.2565308234       -2.5057574961        0.7116129145
 C         -0.6027788044       -2.0073587371        1.6779618607
 C         -1.9234612267       -1.7409779383        1.3567106065
 H         -2.6237484320       -1.3657795003        2.0847439723
 H         -0.2460096245       -1.8221769014        2.6784952306
 H          1.2828959193       -2.7157442364        0.9676545491
 H          0.4809687894       -3.1121428952       -1.3319069239
 H         -1.8926986353       -2.6151392769       -1.9057042850
 H         -3.6261251667        0.0727047388       -1.8101362352
 H         -4.6937566765        0.7463960993        1.5655851161
 H         -3.3331307886        2.1013197213        3.1435689641
 H         -1.0992786691        2.8950265575        2.4765989509
 H          0.6296892481        3.0292355491        0.9589759633
 C          0.1016423061        3.5089406812       -1.0537275606
 C         -0.3002466098        4.9250347640       -0.7749257515
 C          1.1168615737        4.6066141021       -1.1446046200
 H          1.4757225125        4.8959963576       -2.1209344384
 H          1.8693824736        4.6575121297       -0.3711860150
 H         -0.9182875660        5.4364681550       -1.4967276313
 H         -0.5076616205        5.1937425714        0.2497510381
 H         -0.2311955847        3.0644214496       -1.9825588937
