  62
        -98.93661603
 C          2.4214886788        0.3865389835        0.5176865120
 C          2.2164582878       -0.3756114831       -0.6545827569
 C          1.8584126776       -1.7935301404       -0.4679701907
 C          1.7286027428       -2.2748860003        0.7808709570
 C          1.3014894647       -3.6503575972        1.2292374847
 C          1.8677003500       -4.8531297923        0.4598927009
 C          0.8323814705       -5.5528082865       -0.4226391696
 H          1.1445015987       -6.5888979976       -0.5720831424
 H         -0.1201174175       -5.5716887534        0.1109579243
 C          0.6240377457       -4.9309698422       -1.8021150868
 H          1.5001667923       -5.1294772765       -2.4233460958
 H         -0.2261781335       -5.4357513797       -2.2665975138
 C          0.3628640978       -3.4235579895       -1.8122393038
 H         -0.3152966260       -3.1342069246       -1.0088111779
 H         -0.1399706300       -3.1767158139       -2.7499211060
 C          1.6432397361       -2.5783328133       -1.7325982936
 H          2.5196407804       -3.2058559441       -1.9182389099
 H          1.6326013534       -1.8227440895       -2.5241326222
 H          2.7270886614       -4.5435277711       -0.1320467174
 H          2.2245954386       -5.5758895009        1.1955056005
 H          1.5975815988       -3.7088980391        2.2795501356
 H          0.2080844089       -3.6782398185        1.2139119707
 O          1.9480395809       -1.5034453899        1.8862234954
 C          2.2710186839       -0.1635964278        1.7875691713
 O          2.4063351193        0.4190825731        2.8847533161
 H          0.1107518235        1.4111668043        0.9039154942
 C          0.2242412458        2.1053726937        0.0825693515
 C          1.4973152824        2.5003890001       -0.3100708810
 C          1.6180532913        3.4110434329       -1.3506540923
 C          0.4891092237        3.8762042483       -2.0041485077
 C         -0.7716759354        3.4358507569       -1.6475303435
 C         -0.9035245328        2.5420067580       -0.5894769155
 N         -2.1683602574        2.0855955324       -0.1794567100
 S         -2.2907424715        0.5413139858        0.4937388392
 O         -1.9631938056        0.6226667587        1.8967655329
 O         -1.5489285534       -0.4228190241       -0.2858154416
 C         -4.0441599941        0.2685866961        0.3098410844
 C         -4.5076024190       -0.5147696446       -0.7299093350
 C         -5.8748259151       -0.6874727393       -0.8813353754
 C         -6.7501581946       -0.0742686192        0.0022109161
 C         -6.2699388599        0.7086639822        1.0418125622
 C         -4.9044415741        0.8838569891        1.1999119013
 H         -4.4830111556        1.4742057401        1.9967596640
 H         -6.9530137020        1.1819344100        1.7284511612
 H         -7.8133372061       -0.2093716673       -0.1184152853
 H         -6.2503435032       -1.2982918250       -1.6863528064
 H         -3.7881419170       -0.9753526503       -1.3879707260
 H         -2.8881452604        2.2487564226       -0.8704069837
 H         -1.6467523478        3.7769292793       -2.1792830388
 H          0.5958889635        4.5763741097       -2.8187888676
 H          2.5950865240        3.7420678866       -1.6623132383
 C          2.6710219490        1.8810246032        0.4119301463
 H          2.6838873620        2.2620020900        1.4441627184
 C          4.0079036934        2.1684250165       -0.2366920823
 C          4.7489493678        3.4290564688        0.0908656287
 C          5.2462103759        2.1123389199        0.6046180388
 H          6.1431205393        1.6933297787        0.1740450434
 H          5.1201502192        1.8888327242        1.6542837437
 H          5.3101668921        3.9155008115       -0.6925147503
 H          4.2933458490        4.1073577090        0.7963979899
 H          4.0697699679        1.7812247759       -1.2469641370
 O          2.3199365823        0.1073827554       -1.8137503664
