  62
        -98.94370524
 C         -1.7574118891       -0.4783573240        0.5034996146
 C         -2.9509949104       -0.4424630835        1.2626350835
 C         -4.1908341094       -0.6754443501        0.5137887340
 C         -4.1355600341       -0.9236823230       -0.8076683779
 C         -5.3113233814       -1.2017739925       -1.7047221476
 C         -6.0139569883        0.0608954683       -2.2222716262
 C         -6.8418833671        0.8173519364       -1.1826326002
 H         -7.4476169826        1.5466914515       -1.7241806050
 H         -7.5274597955        0.1256757535       -0.6920753064
 C         -6.0090581239        1.5559959497       -0.1255682238
 H         -4.9794831066        1.6551474990       -0.4775826606
 H         -6.4005163022        2.5674017934        0.0056036270
 C         -5.9997120014        0.8916971212        1.2513590591
 H         -5.3520451331        1.4762333975        1.9100516960
 H         -7.0075186177        0.9062114385        1.6722777043
 C         -5.4909754053       -0.5559112604        1.2501807288
 H         -6.2391761877       -1.2173197651        0.8140468885
 H         -5.3158694371       -0.8585460402        2.2855383910
 H         -5.2616712839        0.7301947577       -2.6460098230
 H         -6.6800595808       -0.2455959486       -3.0320741116
 H         -6.0312243194       -1.8316490809       -1.1814775422
 H         -4.9231289923       -1.7550460045       -2.5624788278
 O         -2.9647951655       -0.9701029363       -1.4971038937
 C         -1.7511801561       -0.7275455863       -0.8690619645
 O         -0.7639289085       -0.7690843534       -1.6263849747
 O         -2.9786991404       -0.2233619341        2.5038189339
 C         -0.4340237930       -0.2220533234        1.2002949248
 C          0.2517306192        0.9750461055        0.5900810750
 C         -0.4794336799        2.1443116129        0.3928401604
 C          0.1077067887        3.2574191262       -0.1749561099
 C          1.4403884050        3.2340280808       -0.5483326012
 C          2.1824346334        2.0774975854       -0.3462273713
 C          1.5872064148        0.9586990830        0.2220545526
 H          2.1803287148        0.0734702755        0.3750030617
 N          3.5252915998        2.0136546461       -0.7386426881
 S          4.6395316568        1.1252809116        0.1297036575
 O          4.3932380270        1.1997582395        1.5510299120
 O          5.9233379463        1.6265582427       -0.3137224881
 C          4.4472447307       -0.5505520949       -0.4398848473
 C          4.1458210743       -0.7859324121       -1.7663708543
 C          4.0332181689       -2.0960164781       -2.2035425871
 C          4.2301643779       -3.1424491727       -1.3154926328
 C          4.5392042175       -2.8895229806        0.0119425923
 C          4.6499711691       -1.5814503286        0.4564048379
 H          4.8779197463       -1.3381656462        1.4822495010
 H          4.6915615122       -3.7049963412        0.7012308983
 H          4.1402210870       -4.1608610936       -1.6594205539
 H          3.7877532534       -2.2962171417       -3.2341293447
 H          3.9909549705        0.0483011174       -2.4300071151
 H          3.9142269426        2.8702008980       -1.1033855052
 H          1.9003158601        4.1021438634       -0.9955295580
 H         -0.4741762655        4.1543792394       -0.3260729623
 H         -1.5201820946        2.1651617792        0.6870009562
 H         -0.6934481397        0.0271817747        2.2404777260
 C          0.4144498225       -1.4761407589        1.1977006659
 C          1.4183594000       -1.7132651157        2.2847011077
 C          0.1599267175       -2.5251216749        2.2367135126
 H          0.2262429466       -3.5632064486        1.9482912511
 H         -0.6100538071       -2.3226733877        2.9668658717
 H          2.3491719953       -2.1947043700        2.0260411486
 H          1.5136034262       -0.9594709791        3.0518831133
 H          0.6572130286       -1.8119042990        0.1954109073
