  62
        -98.94174877
 C         -1.7070232677       -0.4754552699       -0.2858249809
 C         -2.8248678248       -1.2913736909        0.0291093899
 C         -4.1418723913       -0.7554662686       -0.3302937226
 C         -4.2314977210        0.4522960153       -0.9152671381
 C         -5.4990106076        1.1267512364       -1.3654231023
 C         -6.2320770722        1.8854532456       -0.2506205442
 C         -6.9347914617        1.0042399811        0.7829904475
 H         -7.5832194682        1.6564661294        1.3714190833
 H         -7.5751844209        0.2856015519        0.2705537834
 C         -5.9846814266        0.2639737837        1.7347574174
 H         -4.9967793859        0.7290148253        1.6967542111
 H         -6.3460581838        0.3645095549        2.7606835522
 C         -5.8397393492       -1.2309804042        1.4500747000
 H         -6.7976767987       -1.7296162392        1.6132988218
 H         -5.1185999951       -1.6466331381        2.1582729593
 C         -5.3536652839       -1.5598452910        0.0324991585
 H         -5.0736893109       -2.6157054946        0.0027086293
 H         -6.1528611333       -1.3891727849       -0.6885610074
 H         -5.5176568022        2.5405816861        0.2534294525
 H         -6.9836028837        2.5187466864       -0.7278208041
 H         -5.2120205595        1.8433017035       -2.1381875639
 H         -6.1696505548        0.3891611870       -1.8073523926
 O         -3.1395030270        1.2139098472       -1.1850460783
 C         -1.8546922583        0.7880902351       -0.8603672248
 O         -0.9711860160        1.6204203412       -1.1357855419
 O         -2.7248446411       -2.4159565878        0.5868689167
 C         -0.3331248421       -1.0075730872        0.0810969209
 C          0.4796610146        0.0508473732        0.7804758499
 C          0.0883007539        0.4698186291        2.0498249086
 C          0.7981644509        1.4451480519        2.7220794079
 C          1.9274865412        2.0078638936        2.1529678304
 C          2.3245497356        1.5988480570        0.8860696993
 C          1.6018338083        0.6265900398        0.2074322997
 H          1.9014415400        0.3639768341       -0.7925180099
 N          3.4624645309        2.1489625263        0.2828827929
 S          4.4178374082        1.2288023240       -0.7251968361
 O          5.7196111769        1.8597087638       -0.6567421010
 O          3.8407112340        1.1332628622       -2.0420989646
 C          4.4887986910       -0.3886801440        0.0274728893
 C          4.1609053159       -1.5016727531       -0.7189895363
 C          4.2161663111       -2.7516879624       -0.1228750892
 C          4.5946255013       -2.8658989853        1.2055676126
 C          4.9276973192       -1.7388221381        1.9412493369
 C          4.8771911921       -0.4875642708        1.3489779001
 H          5.1378722741        0.4052923145        1.8931889010
 H          5.2242255267       -1.8315955226        2.9735218077
 H          4.6309259987       -3.8392101666        1.6688363180
 H          3.9597949629       -3.6292676987       -0.6951054167
 H          3.8648314492       -1.3663417549       -1.7471796426
 H          3.9978234146        2.7832051205        0.8558033987
 H          2.4862529047        2.7685401237        2.6764978974
 H          0.4769175673        1.7662111410        3.7014879830
 H         -0.7915240297        0.0272881266        2.4968509375
 H         -0.5406863310       -1.8103523194        0.8084089662
 C          0.4166613379       -1.6560024571       -1.0726001185
 C         -0.3122668690       -2.3697575811       -2.1700390390
 C          0.4095315905       -1.0892264216       -2.4592214141
 H          1.3236716266       -1.1243858926       -3.0347758693
 H         -0.1699000655       -0.1958531614       -2.6337467431
 H          0.1020179216       -3.2923201535       -2.5475462170
 H         -1.3921877137       -2.3514194146       -2.1486816013
 H          1.3466791517       -2.1069441605       -0.7389237425
