  62
        -98.93419521
 C         -1.8186829377       -0.6054067896       -0.7970419761
 C         -3.1914455543       -0.8953935362       -1.0056340240
 C         -4.1392931662        0.1892510501       -0.7236396033
 C         -3.6682961327        1.3766616861       -0.3015381975
 C         -4.5198712215        2.5552724877        0.0697885161
 C         -4.8643279120        2.5422935966        1.5655720405
 C         -5.3974068638        1.1991417521        2.0641657667
 H         -4.6029157277        0.4524072617        1.9953231481
 H         -5.6362994919        1.3166338018        3.1234120653
 C         -6.6364881954        0.6901955992        1.3143476374
 H         -7.3622019474        0.3252206803        2.0442675643
 H         -7.1069432407        1.5125429587        0.7740962263
 C         -6.3630923751       -0.4614664836        0.3449748902
 H         -7.3240110494       -0.8846906827        0.0402625603
 H         -5.8078254954       -1.2497025892        0.8598103650
 C         -5.6005947459       -0.0916521919       -0.9337147358
 H         -6.0894078844        0.7540135846       -1.4219259823
 H         -5.6469133896       -0.9514508354       -1.6085216113
 H         -5.6032599731        3.3226188379        1.7565896969
 H         -3.9613195753        2.7827981595        2.1312251001
 H         -3.9645069501        3.4664764856       -0.1582608948
 H         -5.4316680739        2.5390443957       -0.5240728722
 O         -2.3484513148        1.6221491367       -0.1199662814
 C         -1.3868017882        0.6455075645       -0.3545009450
 O         -0.2268357163        1.0304881057       -0.1293830834
 O         -3.6046547257       -2.0159933271       -1.4105390910
 C         -0.8233009615       -1.7255157813       -1.0818466152
 C          0.0649659229       -1.9293893386        0.1172946334
 C         -0.4423746837       -2.7178389745        1.1501888115
 C          0.2653283163       -2.9044737493        2.3212211317
 C          1.5048601173       -2.3143218212        2.4895351627
 C          2.0215013328       -1.5209797811        1.4721614790
 C          1.3024919946       -1.3319635413        0.2989146451
 H          1.7263146374       -0.7042471130       -0.4609430064
 N          3.2567125627       -0.8831585125        1.6445548152
 S          4.3565054625       -0.5783959895        0.4284860898
 O          4.0470153217       -1.3369019608       -0.7601059534
 O          5.6553661584       -0.8346218056        1.0174969101
 C          4.2360798267        1.1722344610        0.0994965411
 C          5.4094077838        1.8316812261       -0.2176079081
 C          5.3715901232        3.1878071373       -0.4958496742
 C          4.1621483151        3.8648721004       -0.4543711349
 C          2.9952794202        3.1908817744       -0.1326760605
 C          3.0249731782        1.8325133031        0.1492098471
 H          2.1127218532        1.3126091108        0.3946357592
 H          2.0484212728        3.7063756707       -0.0996399880
 H          4.1284620272        4.9209599923       -0.6716337191
 H          6.2813698368        3.7107300877       -0.7434676164
 H          6.3285969183        1.2686489418       -0.2298180460
 H          3.7244934189       -1.0833367574        2.5150533015
 H          2.0636242305       -2.4563713543        3.4022366753
 H         -0.1476727758       -3.5176115035        3.1081185818
 H         -1.4131812122       -3.1783938928        1.0265497272
 H         -1.4553680886       -2.6249850708       -1.1547946831
 C         -0.2208388366       -1.5574741173       -2.4718051147
 C          0.7017151222       -0.4557986022       -2.8976642251
 C          1.1909384965       -1.8733026810       -2.8629497896
 H          1.3483407879       -2.3753271854       -3.8067324024
 H          1.9037901533       -2.1523606332       -2.1029808451
 H          0.5240980025        0.0025597998       -3.8606753692
 H          1.0481249560        0.2435278770       -2.1539104747
 H         -0.9733056308       -1.8191369426       -3.2130870840
