  62
        -98.94198161
 C         -1.2289546297       -0.8611130003        0.3611590005
 C         -2.0605235799       -0.6780868902       -0.7669230493
 C         -3.0535283998        0.4075277298       -0.6753227491
 C         -3.0763920896        1.1843451298        0.4214533009
 C         -4.0315067695        2.3045397598        0.7283287911
 C         -5.2253280494        1.7918254898        1.5518354413
 C         -6.3898515696        1.2454889799        0.7265390715
 H         -7.1009090395        0.7986092499        1.4250786316
 H         -6.8964696296        2.0753052699        0.2293590416
 C         -6.0130451398        0.2009354399       -0.3274183986
 H         -6.9128814698       -0.3665614201       -0.5722889585
 H         -5.2911010497       -0.5018448101        0.0922040312
 C         -5.4509959400        0.8193005699       -1.6162501887
 H         -5.9870388802        0.4121639700       -2.4760138586
 H         -5.6456643800        1.8917116299       -1.6107003686
 C         -3.9561574000        0.5687046199       -1.8680268490
 H         -3.8319847102       -0.3595917001       -2.4347513990
 H         -3.5590881201        1.3722086999       -2.4979377690
 H         -5.6021324793        2.6103274698        2.1685281114
 H         -4.8563505993        1.0162588698        2.2278790612
 H         -3.4769666494        3.0295628298        1.3283039710
 H         -4.3618095697        2.7893778998       -0.1856575488
 O         -2.2205777894        1.0060869097        1.4654134607
 C         -1.2767457095       -0.0032463803        1.4590309605
 O         -0.5466585193       -0.0360091503        2.4716891504
 H          0.8445398102        0.4030420997       -0.3145117998
 C          1.2826410601       -0.3908374503       -0.8995284199
 C          0.8451723301       -1.6955714503       -0.7192897899
 C          1.4002061799       -2.6942489003       -1.5092786100
 C          2.3582173598       -2.3811411303       -2.4585500802
 C          2.8040201598       -1.0818252103       -2.6211178402
 C          2.2587812099       -0.0768283703       -1.8303362001
 N          2.6823390700        1.2563436097       -1.9438523501
 S          2.7912156702        2.1926369996       -0.5611343201
 O          1.4810746703        2.6156668697       -0.1328192599
 O          3.7057380902        3.2547542196       -0.9250421102
 C          3.5603682304        1.1276142096        0.6466305897
 C          4.8894022004        0.8072600696        0.4414044295
 C          5.5188857305       -0.0553551705        1.3224930694
 C          4.8099251307       -0.5876866405        2.3891773895
 C          3.4797855107       -0.2526658205        2.5844688397
 C          2.8439902306        0.6135658496        1.7075964298
 H          1.8069510906        0.8798358996        1.8437448600
 H          2.9196326909       -0.6606580005        3.4109332198
 H          5.2960545308       -1.2645464205        3.0739339194
 H          6.5553391305       -0.3123051705        1.1749623092
 H          5.4084004302        1.2512989096       -0.3924731506
 H          3.4647975099        1.4054167097       -2.5637695902
 H          3.5573690597       -0.8430807303       -3.3558023903
 H          2.7727180796       -3.1641034003       -3.0750081402
 H          1.0775374199       -3.7151648403       -1.3880226300
 C         -0.1766611397       -1.9540550703        0.3624865303
 H          0.3423755605       -1.8700745503        1.3296480802
 C         -0.8214378498       -3.3214648803        0.2738429904
 C         -0.1725566897       -4.5048555203        0.9248997202
 C         -1.4198775096       -3.9175276903        1.5114812405
 H         -2.3439667996       -4.4688978103        1.4239918906
 H         -1.3383693494       -3.3465737503        2.4253758605
 H          0.7572659604       -4.3407887103        1.4481794401
 H         -0.2427307298       -5.4649647003        0.4363533302
 H         -1.3494345399       -3.4722941502       -0.6603079695
 O         -1.9868911601       -1.3898238502       -1.8033822694
