  62
        -98.94343618
 C          2.2854082204        0.5668634205        0.0207744799
 C          3.2072355504        0.3054612505        1.0707800599
 C          4.1576395304       -0.7880989795        0.8497478599
 C          4.1003527503       -1.4971907695       -0.2916428701
 C          4.9804849203       -2.6606449695       -0.6590791501
 C          6.3270844303       -2.2535990896       -1.2729639602
 C          7.3336563903       -1.6514993795       -0.2917352003
 H          7.4454714304       -2.3159512395        0.5655805998
 H          8.2972991203       -1.6153244296       -0.8038024403
 C          6.9789368304       -0.2384464995        0.1921433097
 H          6.2335359903        0.1992348505       -0.4760326203
 H          7.8658057804        0.3972074105        0.1407221696
 C          6.4566536005       -0.1716827495        1.6274739597
 H          7.2434719705       -0.4819901194        2.3185060497
 H          6.2025682305        0.8675316906        1.8511263397
 C          5.2115545005       -1.0298715294        1.8877073498
 H          5.4814836605       -2.0852092194        1.9171811299
 H          4.7953226805       -0.7462878194        2.8572502699
 H          6.1411621602       -1.5462543296       -2.0845738002
 H          6.7704369902       -3.1512993296       -1.7100730902
 H          5.1528594403       -3.2814706195        0.2205185399
 H          4.4289678103       -3.2473229396       -1.3969414600
 O          3.1899700303       -1.2342311396       -1.2640164900
 C          2.2823522303       -0.1902303195       -1.1505457600
 O          1.5497805802       -0.0693633396       -2.1548057900
 H         -0.4031576197        0.2250505605       -1.2099433499
 C         -0.8227789297        0.5191176605       -0.2591747999
 C         -0.0578106996        1.2770464305        0.6160965701
 C         -0.6129442895        1.6399201006        1.8377413001
 C         -1.8998446895        1.2541839406        2.1701178902
 C         -2.6573205696        0.4965177506        1.2950665503
 C         -2.1102141896        0.1241067805        0.0742318402
 N         -2.8637620697       -0.6659176995       -0.8150022297
 S         -4.3657893697       -0.0766767595       -1.2854592096
 O         -4.6445194398       -0.7072911396       -2.5572701296
 O         -4.3972340897        1.3679237605       -1.2640201897
 C         -5.4844875297       -0.7263392594       -0.0615975595
 C         -5.5375058597       -2.0956157294        0.1114638705
 C         -6.4116011596       -2.6176063794        1.0515076606
 C         -7.2157118795       -1.7668677194        1.7956256806
 C         -7.1530033995       -0.3946650794        1.6076186106
 C         -6.2796611196        0.1341150306        0.6698132705
 H         -6.1921644096        1.1940642906        0.4923598004
 H         -7.7790522595        0.2648271107        2.1868681906
 H         -7.8955613795       -2.1761359093        2.5261086807
 H         -6.4630130296       -3.6841450594        1.2007149607
 H         -4.8993966497       -2.7211296295       -0.4903076895
 H         -2.3353337997       -0.9545088595       -1.6266206997
 H         -3.6593083195        0.1908683106        1.5486674703
 H         -2.3174879094        1.5448824707        3.1218477502
 H         -0.0241056395        2.2218848406        2.5317098000
 C          1.3317818304        1.7302645605        0.2348474300
 H          1.7470656004        2.2799677406        1.0903874499
 C          1.2698976803        2.6735815105       -0.9519783201
 C          0.8358822003        4.0904663205       -0.7327484101
 C          2.2669405103        3.7863365105       -1.0584206502
 H          2.6435913003        4.0483059504       -2.0357927302
 H          2.9995535404        3.8769926105       -0.2696248502
 H          0.5988185104        4.3896853005        0.2769124999
 H          0.2238835103        4.5631823405       -1.4856126401
 H          0.9650756603        2.1902838404       -1.8715051900
 O          3.2352829405        0.9643457906        2.1436010199
