  62
        -98.94114431
 C          2.6856352865        0.3789357005        0.1096422361
 C          2.2697775028        1.1399256721       -1.0145032871
 C          1.6602755942        2.4460825375       -0.7422518910
 C          1.5404279005        2.8556058648        0.5329415152
 C          0.9524715324        4.1677098606        0.9664277486
 C         -0.5448154981        4.0518875154        1.2767640112
 C         -1.3561990932        3.3632096811        0.1794528476
 H         -1.0824452991        2.3060716453        0.1393303712
 H         -2.4060392616        3.4041249516        0.4809364806
 C         -1.2014052495        3.9793865188       -1.2180784794
 H         -2.1893632360        4.0424050126       -1.6787985020
 H         -0.8142449794        4.9962388193       -1.1363756455
 C         -0.3183862237        3.1689531966       -2.1700832586
 H         -0.6123676370        2.1168655122       -2.1251813664
 H         -0.4994587281        3.5226883810       -3.1889596717
 C          1.1925354984        3.2569019493       -1.9169186180
 H          1.4905182901        4.3027363291       -1.8101701842
 H          1.7040033170        2.8396527740       -2.7893803375
 H         -0.6655692351        3.4750605480        2.1969542370
 H         -0.9379481943        5.0564460668        1.4475574966
 H          1.4752215608        4.4910491003        1.8688129514
 H          1.1149539868        4.9036709674        0.1808684547
 O          1.9462205944        2.1044392352        1.5859718572
 C          2.4834712784        0.8307736995        1.4138327175
 O          2.7471677609        0.2621370364        2.4892982405
 O          2.4291373177        0.7413356318       -2.2008389426
 C          3.2485241452       -0.9970690067       -0.2103237090
 C          2.1255221174       -1.8991208544       -0.6625377354
 C          2.2980597496       -2.8185795435       -1.6908921721
 C          1.2440753780       -3.6122148643       -2.1078617692
 C         -0.0090580711       -3.4770568103       -1.5372782857
 C         -0.1928316321       -2.5539686943       -0.5152554686
 C          0.8786209588       -1.7982395834       -0.0655646209
 H          0.7210353532       -1.0901985897        0.7354489312
 N         -1.4542679360       -2.3408085788        0.0734562324
 S         -1.8528692476       -0.7029357346        0.2795477227
 O         -1.4098715017        0.0479103460       -0.8714460063
 O         -1.3747572445       -0.2646222791        1.5669015396
 C         -3.6335834191       -0.7935760503        0.3116754049
 C         -4.3613925092       -0.3544864991       -0.7773648494
 C         -5.7435039297       -0.4596712514       -0.7455959818
 C         -6.3691256241       -1.0030368553        0.3661107142
 C         -5.6244173710       -1.4385204216        1.4526324133
 C         -4.2429468548       -1.3336101421        1.4288837546
 H         -3.6227987973       -1.6482383064        2.2520921001
 H         -6.1143216795       -1.8574428646        2.3166908487
 H         -7.4442633938       -1.0850899621        0.3877737047
 H         -6.3245989254       -0.1179477450       -1.5868297545
 H         -3.8296984500        0.0641706859       -1.6167683946
 H         -2.1930931448       -2.8311354914       -0.4144713164
 H         -0.8405084023       -4.0702111578       -1.8869426129
 H          1.3917164646       -4.3240385380       -2.9057674950
 H          3.2572221981       -2.8896257743       -2.1824464712
 H          3.9115695473       -0.8507811148       -1.0801049972
 C          4.0816537346       -1.6152214357        0.9001809853
 C          3.5411098126       -2.6536821273        1.8320411052
 C          4.5605566011       -3.0336463230        0.8029351316
 H          5.5645216565       -3.2563833356        1.1306082678
 H          4.2248831087       -3.6242896666       -0.0352070876
 H          3.8325241081       -2.5957597015        2.8692237776
 H          2.5208516255       -2.9757613877        1.6874776247
 H          4.7714085745       -0.8985591570        1.3322394575
