  62
        -98.94414349
 C         -2.2357348399       -0.8436009300        0.4405733199
 C         -2.4528295099       -0.0389224202       -0.7044300803
 C         -3.3204356497        1.1289416899       -0.5035048006
 C         -3.8134096697        1.3954743703        0.7195956193
 C         -4.6952692796        2.5585851504        1.0853148990
 C         -6.1854394096        2.3235316605        0.8020465991
 C         -6.5787224796        2.3467865302       -0.6755725009
 H         -7.6689667996        2.3894267603       -0.7151910709
 H         -6.2004592195        3.2597674300       -1.1364665811
 C         -6.1033252197        1.1272017999       -1.4775813406
 H         -5.8315961098        0.3225683601       -0.7904042204
 H         -6.9237503898        0.7560597599       -2.0958564505
 C         -4.9226425297        1.4015981496       -2.4091002907
 H         -5.2244781797        2.1089117294       -3.1846217508
 H         -4.6461825798        0.4636868794       -2.8971485604
 C         -3.6766613797        1.9530586596       -1.7037448808
 H         -2.8363614797        1.9026159794       -2.4005013908
 H         -3.8343811796        2.9932045497       -1.4193130211
 H         -6.7422895595        3.1099559207        1.3167711389
 H         -6.4776050397        1.3673459907        1.2423772394
 H         -4.3601773595        3.4531377503        0.5595163288
 H         -4.5698328096        2.7184243607        2.1585304790
 O         -3.5390744798        0.6226342005        1.8055918895
 C         -2.7619375099       -0.5194847596        1.6898561798
 O         -2.6036807699       -1.1442961093        2.7598185800
 O         -1.9484778199       -0.2782689706       -1.8312393002
 C         -1.3818545600       -2.0927033701        0.3324929702
 C          0.0109308700       -1.7474528103       -0.1387748299
 C          0.7151886099       -2.5218314906       -1.0515472597
 C          2.0009432499       -2.1705520908       -1.4252164698
 C          2.6113584900       -1.0464216408       -0.9011133001
 C          1.9210629401       -0.2705561905        0.0210065797
 C          0.6371498801       -0.6299153002        0.3994633198
 H          0.1037471902       -0.0256460900        1.1245439397
 N          2.5331651702        0.8810085096        0.5538322494
 S          4.0014147402        0.6707906297        1.3469765195
 O          4.0915195101       -0.6403219002        1.9482843898
 O          4.1114716604        1.7994301499        2.2455378592
 C          5.2155425802        0.8338632792        0.0553530594
 C          6.0904587101       -0.2035668509       -0.2013774503
 C          7.0293578701       -0.0532837213       -1.2101434204
 C          7.0763999203        1.1250565485       -1.9393791207
 C          6.1923143604        2.1585438787       -1.6666937309
 C          5.2520792603        2.0154674190       -0.6588530809
 H          4.5497157804        2.7942089392       -0.4121897011
 H          6.2319025104        3.0733417385       -2.2358304912
 H          7.8063395303        1.2389017283       -2.7252102107
 H          7.7175651501       -0.8552782714       -1.4235110502
 H          6.0116483201       -1.1030720608        0.3879529599
 H          1.9115511703        1.4338040698        1.1268804193
 H          3.6077337301       -0.7635334709       -1.1984697802
 H          2.5334071899       -2.7791588911       -2.1399198196
 H          0.2559163898       -3.4007613707       -1.4731143095
 H         -1.2996985501       -2.4954130998        1.3535987503
 C         -2.0750030402       -3.1183103202       -0.5416245295
 C         -1.8919800103       -4.5831752602       -0.2855906191
 C         -3.1961184802       -3.9223307500        0.0425175007
 H         -4.0553908102       -4.1360523100       -0.5752347592
 H         -3.4379564902       -3.7513410297        1.0819178107
 H         -1.8593179104       -5.2543997704       -1.1305560490
 H         -1.2517474303       -4.8722809800        0.5343201909
 H         -2.1796966701       -2.7844923405       -1.5675253396
