  62
        -98.93940398
 C          2.6522024337        1.2708093214       -0.1391826728
 C          2.6543309992        0.1334296293       -0.9821798146
 C          3.9404025790       -0.5685972155       -1.1038222770
 C          5.0131962796       -0.1031410554       -0.4386333117
 C          6.3636759348       -0.7574860223       -0.4242288947
 C          6.4862345290       -1.7483012075        0.7420944402
 C          5.3115536261       -2.7204830747        0.8539164252
 H          5.5210426726       -3.3880806159        1.6926210441
 H          4.4073895710       -2.1618802107        1.1077667008
 C          5.0533904612       -3.5529158812       -0.4097853899
 H          4.8824339107       -4.5906813127       -0.1159460524
 H          5.9365807021       -3.5384829647       -1.0495080232
 C          3.8330365594       -3.1133587769       -1.2208804129
 H          2.9629990575       -3.0370322885       -0.5633129860
 H          3.6177995695       -3.8906726238       -1.9589415476
 C          3.9796047181       -1.7887095507       -1.9801178561
 H          4.8926458241       -1.8057466977       -2.5785053154
 H          3.1248534346       -1.6983304937       -2.6567068787
 H          7.4148244318       -2.3094157576        0.6224820345
 H          6.5496911876       -1.1806302881        1.6733779867
 H          6.5228850420       -1.2717715237       -1.3698749289
 H          7.1216889997        0.0192706221       -0.3105511865
 O          4.9750559850        1.0027171177        0.3484775079
 C          3.7956843478        1.7048677222        0.5316041254
 O          3.8922949538        2.6824780314        1.3013468676
 O          1.6403179610       -0.2767088447       -1.6045257661
 C          1.3667848576        2.0481498232        0.0885541311
 C          0.3567076412        1.1360014278        0.7425515750
 C          0.6665462784        0.5947971471        1.9880401596
 C         -0.2112522653       -0.2600255113        2.6254179387
 C         -1.4148501906       -0.6015812856        2.0327367048
 C         -1.7347836589       -0.0667236887        0.7929775704
 C         -0.8561021325        0.8069388755        0.1610902932
 H         -1.1174960123        1.2133967684       -0.8033293894
 N         -2.9424328261       -0.4278258850        0.1661929039
 S         -4.3511385263       -0.4056177938        1.0970528672
 O         -4.4782650282        0.8652935775        1.7766445304
 O         -4.3665586360       -1.5732055320        1.9415828531
 C         -5.5897468173       -0.5619613039       -0.1738989046
 C         -5.8696944736       -1.8201805395       -0.6720811576
 C         -6.8114750051       -1.9463929010       -1.6806380338
 C         -7.4529973047       -0.8189707118       -2.1719660032
 C         -7.1622190066        0.4369677386       -1.6609355799
 C         -6.2203463362        0.5705093057       -0.6528089550
 H         -5.9696843621        1.5257534519       -0.2199230619
 H         -7.6648268697        1.3108732359       -2.0431156709
 H         -8.1861629914       -0.9199697821       -2.9565809288
 H         -7.0420602634       -2.9212287495       -2.0791062154
 H         -5.3521820135       -2.6677882496       -0.2542168408
 H         -3.0822186086        0.0792282603       -0.6976025830
 H         -2.1083224944       -1.2683931992        2.5187281337
 H          0.0424375873       -0.6694408058        3.5921281607
 H          1.6105310966        0.8560833620        2.4482770664
 H          1.6163395218        2.8434871841        0.8052905490
 C          0.8888483092        2.6848458696       -1.1987485362
 C         -0.0355016178        3.8633342829       -1.1498566777
 C          1.3929156466        4.0471876431       -1.5641700380
 H          1.6069824526        4.2562262777       -2.6015299340
 H          2.0705744970        4.5281014416       -0.8737516235
 H         -0.8016434204        3.9515856747       -1.9053341486
 H         -0.3328049998        4.2241884701       -0.1766159874
 H          0.7651623790        1.9679300443       -2.0018077661
