  62
        -98.93980674
 C          2.2754857512        0.9198970260        0.6497119990
 C          3.4104421852        0.8689786489       -0.1968611075
 C          4.3774618704       -0.1988031764        0.0936246922
 C          4.1592715045       -1.0508012540        1.1103142479
 C          5.0608504307       -2.1786481695        1.5337589347
 C          4.8663658575       -3.4705110687        0.7279918884
 C          5.4012313042       -3.4312682137       -0.7041489147
 H          6.4367518859       -3.0898763761       -0.6943394375
 H          5.3999086379       -4.4584751326       -1.0741275219
 C          4.5786210097       -2.5601305284       -1.6638901405
 H          3.5951512306       -2.3660238567       -1.2286224600
 H          4.4124773947       -3.1033465107       -2.5969036251
 C          5.2315942056       -1.2262613374       -2.0259840793
 H          6.1530497895       -1.4086396983       -2.5832683103
 H          4.5468505227       -0.6754638483       -2.6755021575
 C          5.5584760205       -0.3365708187       -0.8198729218
 H          6.4138912561       -0.7370863521       -0.2767631069
 H          5.8110096231        0.6605668238       -1.1881333510
 H          3.8015124477       -3.7151594290        0.7133926237
 H          5.3833398961       -4.2693982570        1.2647041509
 H          6.1015470134       -1.8600580190        1.4675060773
 H          4.8262365191       -2.3867533685        2.5798956533
 O          3.0622214666       -0.9635924290        1.9101408246
 C          2.0993671527        0.0068506817        1.6944072466
 O          1.1483176652       -0.0353177804        2.5029531639
 H         -1.3993590517        1.1518641734        0.7321666955
 C         -1.0806811437        1.1721099884       -0.2996140449
 C          0.2176897709        1.5475323941       -0.6148582230
 C          0.6122197041        1.5445331557       -1.9489550610
 C         -0.2769490215        1.1674507223       -2.9382586919
 C         -1.5692215666        0.7889004552       -2.6204749693
 C         -1.9753668791        0.7935623926       -1.2909025259
 N         -3.2984121035        0.4581687777       -0.9519665140
 S         -3.5996505459       -0.3638796142        0.4917002180
 O         -3.5327746348        0.5743669860        1.5834032348
 O         -2.7546617279       -1.5340649420        0.5844653723
 C         -5.2972997044       -0.8412397546        0.2243648941
 C         -5.5962024941       -2.1387398044       -0.1449316823
 C         -6.9196998069       -2.4831694672       -0.3722924963
 C         -7.9156478469       -1.5289211761       -0.2300910202
 C         -7.6002007148       -0.2302595118        0.1417457706
 C         -6.2796004819        0.1201031222        0.3723017624
 H         -5.9873055056        1.1128467043        0.6721028364
 H         -8.3773646286        0.5083474933        0.2539913457
 H         -8.9444836508       -1.7996498216       -0.4074192199
 H         -7.1679561148       -3.4926921285       -0.6578337189
 H         -4.7893452641       -2.8482135996       -0.2357044554
 H         -3.7945356983        0.0266454669       -1.7206864939
 H         -2.2607545101        0.4939459047       -3.3952619672
 H          0.0415595298        1.1632415167       -3.9698432459
 H          1.6251894779        1.8198607763       -2.1976848722
 C          1.1652358302        1.9475011270        0.4915252257
 H          0.6002179431        1.9172139170        1.4337359425
 C          1.6793532048        3.3598727562        0.2887788099
 C          0.7637505583        4.5079837643        0.5836017239
 C          1.9276361464        4.2259054697        1.4848712265
 H          2.7715729558        4.8989556303        1.4669123391
 H          1.7279483647        3.8016831113        2.4586915650
 H          0.8061424437        5.3776793976       -0.0537265068
 H         -0.2263490264        4.2748568759        0.9469816835
 H          2.3612329660        3.4567131727       -0.5450468933
 O          3.6340031480        1.6632368650       -1.1474721511
