  62
        -98.93950904
 C         -1.1628344150       -1.4950586569        0.6383709034
 C         -2.1922391392       -1.3161128758       -0.3169069778
 C         -3.2006246390       -0.2846241523       -0.0068853002
 C         -3.0918367627        0.4323960096        1.1234532426
 C         -4.0173196121        1.4959146032        1.6612261437
 C         -4.6013151602        2.5058843220        0.6644332962
 C         -3.6697238532        2.8835227225       -0.4963288801
 H         -3.6054211255        3.9713322772       -0.5578831019
 H         -2.6660201632        2.5011005742       -0.3082300397
 C         -4.1566076129        2.3617280373       -1.8498284136
 H         -5.2360810890        2.5124575394       -1.9195612191
 H         -3.6921714284        2.9519723629       -2.6430845053
 C         -3.8360644811        0.8944605352       -2.1301757127
 H         -4.3210392556        0.6164734169       -3.0688958575
 H         -2.7596066860        0.7705670793       -2.2763861525
 C         -4.2757570062       -0.0949907269       -1.0385391553
 H         -5.2166619450        0.2090819022       -0.5864257127
 H         -4.4162086675       -1.0722575656       -1.5081041183
 H         -4.8537942124        3.4005328200        1.2363427221
 H         -5.5361384764        2.1198681873        0.2607050945
 H         -4.8377551224        0.9951484933        2.1839965190
 H         -3.4348116247        2.0246261260        2.4200980763
 O         -2.0683114274        0.2424002228        2.0058951040
 C         -1.0943362277       -0.7157775744        1.7939602348
 O         -0.2337391204       -0.7753292231        2.6966953374
 H          2.1554238028       -1.0823325931        0.8538229036
 C          1.9996962125       -1.2825981301       -0.1958530071
 C          0.9064939526       -2.0402851059       -0.5975027653
 C          0.7305147578       -2.2952426162       -1.9528142125
 C          1.6321274189       -1.8006652125       -2.8780302862
 C          2.7175251457       -1.0434279296       -2.4757133780
 C          2.9026723527       -0.7819514099       -1.1225537722
 N          4.0103519670       -0.0378583885       -0.6887641523
 S          3.8884094220        1.0350426908        0.5848575979
 O          5.0577819890        1.8764789433        0.4444650368
 O          3.7707495027        0.3219113532        1.8302173346
 C          2.4256828343        1.9986698820        0.2529538708
 C          1.2805672327        1.8186001100        0.9998196545
 C          0.1627317847        2.5826528359        0.7010734439
 C          0.2048003103        3.5007961876       -0.3357661887
 C          1.3642969638        3.6687013206       -1.0781048911
 C          2.4857202920        2.9127939671       -0.7820045565
 H          3.4117415693        3.0297869177       -1.3211537760
 H          1.3952461653        4.3864896737       -1.8818309197
 H         -0.6692161144        4.0910349008       -0.5623513653
 H         -0.7334985401        2.4476242677        1.2866362445
 H          1.2675552581        1.0934117742        1.7990828422
 H          4.5850190334        0.3337246698       -1.4308329510
 H          3.4213102858       -0.6614879704       -3.1993183402
 H          1.4852999233       -2.0046545545       -3.9277660318
 H         -0.1265662935       -2.8603607862       -2.2793316202
 C         -0.0606344344       -2.5275297386        0.4551043441
 H          0.4796782228       -2.5563082776        1.4114698963
 C         -0.6047762594       -3.9125408043        0.1697006295
 C          0.2981039900       -5.0958965021        0.3380177120
 C         -0.8197823429       -4.8614830753        1.3082661309
 H         -1.6770310183       -5.5173052229        1.2775420472
 H         -0.5703715173       -4.5170943955        2.3018291912
 H          0.2110496015       -5.9153810883       -0.3586476154
 H          1.3073286677       -4.9085790327        0.6737196740
 H         -1.3280291947       -3.9378127352       -0.6344066347
 O         -2.2963170912       -1.9880863325       -1.3743920528
