  62
        -98.93673583
 C          1.0034579390        1.5324058298        0.1371671609
 C          1.6034437495        0.5736890200        0.9875165908
 C          2.7350057902       -0.1965416490        0.4347188710
 C          3.0744131605       -0.0108731084       -0.8531163189
 C          4.2131564812       -0.6304781673       -1.6205714987
 C          5.5880671709       -0.4967002665       -0.9436300682
 C          6.1627790517       -1.8313816562       -0.4714762984
 H          5.9692954225       -2.5879872561       -1.2346424587
 H          7.2465115016       -1.7322548254       -0.3777336781
 C          5.6233716717       -2.3139547969        0.8731794313
 H          6.0312638823       -3.3116644967        1.0518610311
 H          6.0004249209       -1.6635295069        1.6653922416
 C          4.0972199217       -2.3835165781        0.9834417908
 H          3.8574187520       -3.1385681585        1.7351583305
 H          3.6704928522       -2.7243439682        0.0422362706
 C          3.4354986405       -1.0755261587        1.4371008009
 H          2.6638374105       -1.3013268195        2.1802810606
 H          4.1728018599       -0.4579032183        1.9619797413
 H          5.5165244501        0.1948659833       -0.1038688281
 H          6.2813410608       -0.0603518757       -1.6643175079
 H          4.2219366311       -0.1211998170       -2.5864333786
 H          3.9941330120       -1.6805977974       -1.8198819691
 O          2.3775586301        0.8269043513       -1.6726338089
 C          1.3606566793        1.6432096605       -1.2059784090
 O          0.8765347591        2.3938187803       -2.0724101789
 O          1.2266673392        0.3848876994        2.1755477506
 C         -0.0551003519        2.4511478489        0.7258174208
 C         -1.4128811214        2.0881585880        0.1801937003
 C         -1.9774275115        2.7139196379       -0.9244580897
 C         -3.2069458511        2.3041490771       -1.4111661902
 C         -3.9035199205        1.2749452964       -0.8030951507
 C         -3.3487904704        0.6467173965        0.3034590793
 C         -2.1122897308        1.0502657873        0.7849157398
 H         -1.6727915907        0.5471651074        1.6370027298
 N         -4.0531595698       -0.4225139142        0.9091032788
 S         -4.0235988384       -1.8493805139        0.0311858584
 O         -4.6172755082       -1.6111481740       -1.2582187617
 O         -4.6624956079       -2.8432784546        0.8621327679
 C         -2.2868286481       -2.2149968726       -0.1368138012
 C         -1.5551014483       -1.5447886718       -1.0970674508
 C         -0.1865048281       -1.7507760007       -1.1570371604
 C          0.4205752522       -2.6173791705       -0.2622527004
 C         -0.3276042176       -3.2822995213        0.6962648292
 C         -1.6948237177       -3.0737903424        0.7675444088
 H         -2.3158092076       -3.5657352230        1.4991654085
 H          0.1533136427       -3.9522684712        1.3905428291
 H          1.4865130324       -2.7682804497       -0.3081149301
 H          0.4003406417       -1.2228547901       -1.8930665901
 H         -2.0577224386       -0.8791818519       -1.7805406107
 H         -3.7362846399       -0.6183447242        1.8493191488
 H         -4.8546625001        0.9347488758       -1.1786400011
 H         -3.6285834312        2.7943896170       -2.2755978002
 H         -1.4399464920        3.5052132984       -1.4197204293
 H         -0.0577153120        2.2304721586        1.8018749007
 C          0.3002758971        3.9111551392        0.5327522213
 C         -0.4018131039        4.9485922684        1.3550224314
 C          1.0393849662        4.6331480594        1.6175245617
 H          1.7869873358        5.3594716801        1.3359113822
 H          1.2866845664        4.0775416194        2.5103669617
 H         -0.6464232245        5.8934471484        0.8947952616
 H         -1.1346949439        4.6050640977        2.0693753611
 H          0.5562622272        4.1619887497       -0.4889248385
