  62
        -98.94111029
 C          1.9000733401        0.9167608798        0.2692121701
 C          2.3194356501       -0.0759374805        1.1890825998
 C          2.5540528102       -1.4168622003        0.6398583893
 C          2.3038526204       -1.6437746198       -0.6622473508
 C          2.5296116806       -2.9513302195       -1.3640568613
 C          3.9405187707       -3.0272258292       -1.9645794611
 C          5.0489076005       -2.6399777395       -0.9856032108
 H          6.0003916906       -2.7567400493       -1.5085441807
 H          4.9471806404       -1.5816648096       -0.7347233204
 C          5.0705349004       -3.4665091300        0.3077567689
 H          4.4964930304       -4.3834850300        0.1707572385
 H          6.1013053204       -3.7567064400        0.5211263389
 C          4.5516951702       -2.7260475205        1.5418595591
 H          5.0577104401       -1.7613864005        1.6307909395
 H          4.8106996701       -3.3141689109        2.4261391189
 C          3.0378482101       -2.4805508706        1.5851506890
 H          2.5056369902       -3.4185561906        1.4119920485
 H          2.7844968500       -2.1247232410        2.5883913791
 H          4.1078913808       -4.0442475491       -2.3235588015
 H          3.9877139008       -2.3511890789       -2.8213386408
 H          2.3780857205       -3.7651199898       -0.6571990716
 H          1.7932855307       -3.0382777192       -2.1650271514
 O          1.8560033505       -0.6816283795       -1.5063306405
 C          1.6292635003        0.6151434803       -1.0671896000
 O          1.2094481504        1.3800413706       -1.9557625798
 H         -0.6378754500        0.9240923794        1.0687572498
 C         -0.8197500200        1.8609844196        0.5601260701
 C          0.2367585400        2.7368469997        0.3398158006
 C         -0.0192183800        3.9354064299       -0.3114588390
 C         -1.2981572299        4.2298846800       -0.7525713490
 C         -2.3364828799        3.3364756799       -0.5699396595
 C         -2.0914908599        2.1374226097        0.0914779001
 N         -3.1261192799        1.2088823995        0.3107952295
 S         -2.7380009498       -0.4344428505        0.2959576190
 O         -2.2198466500       -0.7985846509        1.5923611089
 O         -1.9057744396       -0.7554198400       -0.8419745010
 C         -4.3656755597       -1.1350257205        0.0902088485
 C         -4.7985224995       -1.4841036500       -1.1750496817
 C         -6.0777802595       -1.9954075100       -1.3289425321
 C         -6.8990884096       -2.1447451205       -0.2215190623
 C         -6.4503366698       -1.7909936209        1.0423990079
 C         -5.1720965899       -1.2803501309        1.2032811883
 H         -4.7749874200       -0.9999931613        2.1648450085
 H         -7.0902704199       -1.9114177713        1.9015033378
 H         -7.8939566096       -2.5426234805       -0.3441695326
 H         -6.4273283393       -2.2744019696       -2.3098634423
 H         -4.1208772294       -1.3577406496       -2.0044928516
 H         -3.9410473598        1.3959473797       -0.2581403005
 H         -3.3263314398        3.5574060200       -0.9395106896
 H         -1.4833508999        5.1613103102       -1.2659457387
 H          0.7856467500        4.6261228501       -0.5017080986
 C          1.6008723100        2.3025444796        0.8148004206
 H          1.5450077098        2.1552806992        1.9075466006
 C          2.6930075200        3.3330180497        0.5730699212
 C          4.1155650300        2.9125290599        0.3589360312
 C          3.3363387701        3.5190647303       -0.7672007286
 H          3.5876235101        4.5222663304       -1.0791907482
 H          3.0050420803        2.8799341606       -1.5702188589
 H          4.3222572501        1.8524922899        0.3247427008
 H          4.8982063099        3.4959835598        0.8202327316
 H          2.5449003798        4.2274437295        1.1704994815
 O          2.4863406599        0.1505232490        2.4191666099
