  62
        -98.93824813
 C         -2.6074820491       -1.2334052204       -0.3144564847
 C         -3.4171492799       -0.6052351095        0.6681051943
 C         -4.0625890284        0.6517922663        0.2776377933
 C         -3.8762208880        1.1369231483       -0.9628839978
 C         -4.4828984651        2.3936357176       -1.5251342158
 C         -3.7082451599        3.6710488670       -1.1731701667
 C         -3.8337131115        4.1277383634        0.2808390113
 H         -3.4303757301        5.1408959227        0.3338440267
 H         -4.8878931116        4.1812072545        0.5545179515
 C         -3.0824718902        3.2466441599        1.2891097360
 H         -2.5243406915        3.8803581374        1.9823722062
 H         -2.3464206151        2.6329946130        0.7628027046
 C         -3.9788757197        2.3366691190        2.1295801843
 H         -3.3383737882        1.7309280994        2.7760002416
 H         -4.6222538765        2.9462398913        2.7679450403
 C         -4.8621087212        1.3861514577        1.3108804895
 H         -5.2879582791        0.6440113140        1.9904507112
 H         -5.6747823639        1.9392563829        0.8405555057
 H         -2.6535334859        3.5202213236       -1.4165935149
 H         -4.0866725847        4.4691824670       -1.8160180336
 H         -5.5142844093        2.4867306963       -1.1839424704
 H         -4.4834875702        2.2797202155       -2.6112949327
 O         -3.1022768845        0.5035215877       -1.8812653119
 C         -2.4266977425       -0.6743779446       -1.5797583075
 O         -1.7253873961       -1.0948164799       -2.5198711680
 O         -3.5997836197       -1.0847529064        1.8188352540
 C         -1.9289007271       -2.5295980839        0.0957814595
 C         -0.5482782891       -2.2528148945        0.6344572605
 C         -0.1595919264       -2.7046233871        1.8895926537
 C          1.0992256524       -2.4102905754        2.3845958016
 C          1.9954546688       -1.6651883662        1.6393102813
 C          1.6157121684       -1.2059975974        0.3850898446
 C          0.3538261489       -1.5032759896       -0.1083566921
 H          0.0633135928       -1.1437776569       -1.0853251238
 N          2.5198907967       -0.4519313178       -0.3942108903
 S          3.0321022957        1.0475131359        0.1849932251
 O          2.7949012280        1.1291332213        1.6051513471
 O          2.4363730870        2.0865800653       -0.6295754983
 C          4.7873125130        0.9905423827       -0.1242339378
 C          5.5019378604       -0.0960620067        0.3406679514
 C          6.8688311581       -0.1445344258        0.1197012803
 C          7.4966239975        0.8901702506       -0.5578869855
 C          6.7657469099        1.9732842477       -1.0204721368
 C          5.3973980335        2.0264318837       -0.8031118271
 H          4.7888238845        2.8463077839       -1.1488898162
 H          7.2544223784        2.7757449367       -1.5493319768
 H          8.5609560919        0.8507214000       -0.7278983741
 H          7.4389635357       -0.9877392800        0.4751433221
 H          4.9791545052       -0.8834817414        0.8577262919
 H          2.1792816429       -0.3191706796       -1.3372167487
 H          2.9663639848       -1.4131543177        2.0324662076
 H          1.3854133955       -2.7630950218        3.3637234113
 H         -0.8590122525       -3.2718242255        2.4862054265
 H         -2.5380892102       -2.9065456807        0.9325895128
 C         -1.9481482862       -3.5920480647       -0.9946060397
 C         -0.7224167611       -4.0866633678       -1.6967601253
 C         -1.4190485322       -4.9657946516       -0.7048945528
 H         -1.9717120428       -5.8205641510       -1.0637724368
 H         -0.9369518539       -5.1174656739        0.2491864867
 H         -0.8090787627       -4.3136515841       -2.7483688157
 H          0.2315344373       -3.6650593115       -1.4221371485
 H         -2.8506368631       -3.5350117977       -1.5948732420
