  62
        -98.94574856
 C          2.3625124135        0.8632226492        0.2882650708
 C          2.1479618445       -0.0067379112       -0.8083011934
 C          2.5228587278       -1.4117799232       -0.5915778040
 C          2.9975087215       -1.7911563960        0.6088544169
 C          3.3485156835       -3.2008891332        0.9851809997
 C          2.1411989610       -3.9322828260        1.5892541236
 C          0.8627237846       -3.8117476069        0.7588975298
 H          0.5299524962       -2.7709204115        0.7601774744
 H          0.0927351878       -4.3958149821        1.2674669902
 C          1.0021005780       -4.2945820268       -0.6913657749
 H          0.1381405332       -4.9131299705       -0.9410061228
 H          1.8876622004       -4.9237132603       -0.7878446068
 C          1.0624446171       -3.1706885323       -1.7269256534
 H          0.2299104146       -2.4807190509       -1.5694394547
 H          0.9411615187       -3.6145579699       -2.7182337442
 C          2.3608744914       -2.3556222487       -1.7497868782
 H          2.3407476977       -1.7274190918       -2.6449715749
 H          3.2191092676       -3.0271577632       -1.8198837489
 H          1.9466547160       -3.5179052003        2.5814191694
 H          2.4017369953       -4.9856495169        1.7078613598
 H          3.7023769076       -3.7295370709        0.1022430218
 H          4.1504949034       -3.1703838090        1.7247471468
 O          3.1623814433       -0.9309000996        1.6471735182
 C          2.8521480115        0.4128592214        1.5134915300
 O          3.0434913029        1.0906704851        2.5447554974
 H          0.0566916060        1.2809113509        1.5786134780
 C         -0.3402031500        1.8632585521        0.7554727210
 C          0.5465840028        2.5002179888       -0.1049182594
 C          0.0294837447        3.2502718464       -1.1518792731
 C         -1.3402594717        3.3523094463       -1.3282780525
 C         -2.2193298156        2.7226466130       -0.4670259060
 C         -1.7127296290        1.9687952781        0.5854228896
 N         -2.5823446341        1.3479854489        1.4977086516
 S         -3.9361139644        0.5053567964        1.0024103313
 O         -4.8538746650        1.4118632539        0.3601337603
 O         -4.4140826171       -0.1525198430        2.1966468959
 C         -3.3694925086       -0.7142069934       -0.1676961385
 C         -3.0183861192       -1.9633270314        0.3055312708
 C         -2.5749348516       -2.9206769185       -0.5914608086
 C         -2.4785205365       -2.6102269687       -1.9395434870
 C         -2.8241535000       -1.3483851811       -2.3975028879
 C         -3.2773426893       -0.3888343589       -1.5060618037
 H         -3.5686154582        0.5963817366       -1.8298654810
 H         -2.7422719661       -1.1080008665       -3.4452089771
 H         -2.1333059713       -3.3566969727       -2.6372931959
 H         -2.3041989771       -3.9021775512       -0.2375881386
 H         -3.1174024104       -2.1663236701        1.3599157665
 H         -2.1095269151        0.8507893307        2.2375710703
 H         -3.2870621813        2.8093160443       -0.5864272926
 H         -1.7299152537        3.9379928957       -2.1470792250
 H          0.6964490686        3.7527213943       -1.8323959280
 C          2.0240107645        2.3382944543        0.1618012804
 H          2.2380667043        2.7839325115        1.1444357861
 C          2.9100681125        2.9974322995       -0.8736900833
 C          3.2180118638        4.4604552498       -0.7767039359
 C          4.2799608253        3.4489276675       -0.4691274420
 H          5.0925540888        3.3226114506       -1.1687056088
 H          4.5667896124        3.3022431297        0.5623784161
 H          2.7870810068        5.0087792657        0.0474301502
 H          3.3056677557        5.0317502055       -1.6884700768
 H          2.7997878908        2.5594359092       -1.8586045339
 O          1.6710074918        0.3664435573       -1.9104831084
