  62
        -98.94031034
 C          1.7940931501        0.6697593595        0.9234800099
 C          2.0427306499        0.3098371795       -0.4241597801
 C          3.4407746099        0.4293893994       -0.8698557702
 C          4.3784047300        0.8636390893       -0.0093592303
 C          5.8422551700        0.9802864592       -0.3187162205
 C          6.5903350699       -0.3092500909        0.0473807194
 C          5.9304979497       -1.5797978808       -0.4888617705
 H          4.9648689598       -1.7161759808        0.0036781096
 H          6.5615046897       -2.4218360609       -0.1959210505
 C          5.7285277596       -1.5972802008       -2.0104831905
 H          6.0333782795       -2.5740836709       -2.3920243405
 H          6.3729697996       -0.8518668209       -2.4779847005
 C          4.2840095796       -1.3740616007       -2.4626038703
 H          3.6212736796       -2.0580578707       -1.9261050602
 H          4.2192419994       -1.6227043407       -3.5252528103
 C          3.7432350497        0.0512233693       -2.2925169903
 H          2.7908060696        0.1098226794       -2.8272728802
 H          4.4361943297        0.7644765593       -2.7433006103
 H          6.6404996200       -0.3832665009        1.1362823794
 H          7.6101632899       -0.2374620510       -0.3350649507
 H          6.2528214901        1.8057286891        0.2653154495
 H          5.9690321499        1.1985036091       -1.3772184705
 O          4.1017720002        1.2000915493        1.2768013797
 C          2.8159105302        1.0880497394        1.7795687898
 O          2.7118403903        1.3816706394        2.9874308898
 O          1.1573891398       -0.0913997805       -1.2217532300
 C          0.4074006501        0.5563940996        1.5326544901
 C         -0.2323437400       -0.7512976003        1.1342247201
 C          0.4541003899       -1.9366203004        1.3894100901
 C         -0.0889934302       -3.1576544004        1.0439003801
 C         -1.3444865203       -3.2276694003        0.4645606703
 C         -2.0430819602       -2.0539416602        0.2181974303
 C         -1.4824615101       -0.8261894702        0.5429222403
 H         -2.0324285800        0.0704353898        0.3141193203
 N         -3.3195766703       -2.0789364201       -0.3652130595
 S         -4.5154461801       -1.0959326400        0.2713874406
 O         -4.3364944100       -0.8960725900        1.6910268706
 O         -5.7573387402       -1.7227102199       -0.1299776593
 C         -4.3532734801        0.4522683400       -0.5916694494
 C         -4.2365539402        0.4357420400       -1.9672660095
 C         -4.1497806402        1.6409566100       -2.6452624295
 C         -4.1875541000        2.8354115500       -1.9418021195
 C         -4.3085136299        2.8350763100       -0.5604772895
 C         -4.3931944699        1.6325543400        0.1237071606
 H         -4.4791849898        1.5855546200        1.1978463506
 H         -4.3356898898        3.7647286500       -0.0141929495
 H         -4.1192310400        3.7723965900       -2.4718568695
 H         -4.0523509803        1.6461232300       -3.7188917295
 H         -4.2119899704       -0.5108987900       -2.4804535295
 H         -3.6708107904       -3.0013352001       -0.5778957295
 H         -1.7756577904       -4.1820678202        0.2020446803
 H          0.4627017797       -4.0658497604        1.2365550801
 H          1.4302422300       -1.8841235705        1.8538624600
 H          0.5779843702        0.5203993796        2.6222666401
 C         -0.4860725998        1.7611492497        1.2752029402
 C          0.0951611003        3.1204089496        1.0284523401
 C         -0.6008507099        2.3911644397       -0.0792665898
 H         -1.5702090399        2.7448720398       -0.3986907497
 H         -0.0062980000        1.9689809396       -0.8733218399
 H         -0.3949223396        3.9728100397        1.4742672901
 H          1.1715571003        3.2065648095        0.9922081000
 H         -1.3891766397        1.7289399197        1.8782250403
