  62
        -98.94284851
 C          2.0885245158        1.5138048734        0.1133317985
 C          1.7062725466        0.3730134231       -0.6371214459
 C          2.7499364806       -0.6513317964       -0.8167777891
 C          3.9718721271       -0.4581382762       -0.2907031907
 C          5.1047432885       -1.4398590276       -0.3598709653
 C          5.1003592292       -2.3777129837        0.8555077458
 C          3.7379586563       -3.0083744669        1.1440903409
 H          3.8637971279       -3.6741495333        2.0006509703
 H          3.0386518914       -2.2252975108        1.4463199898
 C          3.1411235923       -3.7938187171       -0.0317737171
 H          3.9244777713       -4.0340085718       -0.7516983181
 H          2.7470937180       -4.7399575069        0.3448530813
 C          1.9904661874       -3.0854663600       -0.7491740882
 H          1.2472387019       -2.7589113091       -0.0176436975
 H          1.5098189801       -3.8114301444       -1.4102460371
 C          2.3819340484       -1.8757482469       -1.6068498056
 H          1.5100083022       -1.5927335538       -2.2037185779
 H          3.1894269391       -2.1513814914       -2.2884010553
 H          5.4067714895       -1.8060755673        1.7347635974
 H          5.8395225235       -3.1632566635        0.6876059599
 H          5.0244187742       -2.0175189928       -1.2786705573
 H          6.0427650442       -0.8820115038       -0.3736301250
 O          4.3023067184        0.6505725939        0.4196981897
 C          3.3692922221        1.6450975062        0.6584458252
 O          3.7947390336        2.5842345090        1.3607344942
 O          0.5682720274        0.2028779914       -1.1429522421
 C          1.1149538425        2.6393580055        0.4247253265
 C         -0.1934550557        2.0591185083        0.8987580054
 C         -0.2553845255        1.4757984531        2.1608775970
 C         -1.4272959110        0.9031371464        2.6180496949
 C         -2.5594097054        0.8910889871        1.8222748161
 C         -2.5011462170        1.4542318508        0.5544833992
 C         -1.3273303127        2.0437304079        0.1035813634
 H         -1.2902614845        2.4612033309       -0.8902897199
 N         -3.6361462274        1.4286162333       -0.2716362899
 S         -4.5862991089        0.0538696742       -0.2949187687
 O         -5.2511104672        0.0825156479       -1.5793723071
 O         -5.4556134192        0.0522804627        0.8568852046
 C         -3.4708226142       -1.3354404930       -0.2075221975
 C         -2.5174280094       -1.4756006985       -1.1956915535
 C         -1.6536233078       -2.5562959251       -1.1429217785
 C         -1.7537471372       -3.4716506632       -0.1068193705
 C         -2.7172798148       -3.3175102356        0.8777387688
 C         -3.5864050337       -2.2397956180        0.8286555687
 H         -4.3517369788       -2.0831233415        1.5716617807
 H         -2.7929157972       -4.0316121257        1.6820792790
 H         -1.0758894927       -4.3100164366       -0.0677744500
 H         -0.8998381101       -2.6700709230       -1.9045552886
 H         -2.4524412405       -0.7477136397       -1.9877501492
 H         -3.4684423142        1.7719014157       -1.2058229150
 H         -3.4836813273        0.4560217291        2.1657950373
 H         -1.4616704477        0.4597410737        3.6016700954
 H          0.6330912765        1.4724059149        2.7779943173
 H          1.5697564500        3.1817049394        1.2693228767
 C          0.9465216569        3.6536303995       -0.6970767201
 C          2.1225863961        4.0701472223       -1.5276808214
 C          1.0084934904        3.2838971017       -2.1473990419
 H          0.3453510260        3.7923963864       -2.8326199542
 H          1.1853099399        2.2500978184       -2.3980111633
 H          2.2265651211        5.1129168346       -1.7872056127
 H          3.0627578343        3.5706255564       -1.3438438875
 H          0.2480989445        4.4396719344       -0.4248997539
