  62
        -98.94259748
 C          2.1338192215        0.8867317479        0.1662493293
 C          2.5986280487       -0.0271158737        1.1406791037
 C          2.9138686732       -1.3777239742        0.6579740394
 C          2.7036027371       -1.6778784709       -0.6370273134
 C          3.0095370161       -3.0042862941       -1.2689152961
 C          4.4330472757       -3.0343150136       -1.8426979558
 C          5.5021433363       -2.5455223889       -0.8654044923
 H          6.4678170590       -2.6406870533       -1.3663021068
 H          5.3445973880       -1.4825904211       -0.6689493264
 C          5.5394558454       -3.3069705205        0.4669551512
 H          5.0169248453       -4.2586181674        0.3641982440
 H          6.5793069830       -3.5322777431        0.7123224483
 C          4.9591784740       -2.5360822045        1.6539913631
 H          5.2319360872       -3.0665785726        2.5700578560
 H          5.4130497206       -1.5431874509        1.7027691076
 C          3.4343490717       -2.3690641648        1.6610287893
 H          3.1469167069       -1.9796196449        2.6422566674
 H          2.9560438770       -3.3413144522        1.5245749989
 H          4.6582143516       -4.0567466050       -2.1513187381
 H          4.4612447961       -2.3971676759       -2.7296214509
 H          2.2943102033       -3.1696748191       -2.0767520514
 H          2.8885557463       -3.7903134736       -0.5258131366
 O          2.2233241252       -0.7829841628       -1.5381430504
 C          1.9231640868        0.5176514333       -1.1629090819
 O          1.4879499833        1.2323475178       -2.0858166131
 O          2.7305640757        0.2700218504        2.3596721303
 C          1.7586134766        2.2948390857        0.5944286741
 C          0.2925493435        2.5192307191        0.3148551912
 C         -0.2107627681        3.6396963994       -0.3319888476
 C         -1.5640071248        3.7437227629       -0.6080118731
 C         -2.4428071099        2.7397652631       -0.2452845321
 C         -1.9513020089        1.6259380576        0.4201187796
 C         -0.6004472900        1.5281021767        0.7040144625
 H         -0.2242649427        0.6470617484        1.2116946933
 N         -2.8441695830        0.5797137563        0.7743587598
 S         -3.2166928589       -0.4530134198       -0.5164095213
 O         -2.2481539618       -1.5306426975       -0.5682614067
 O         -3.3809052999        0.3338801384       -1.7107007560
 C         -4.7963329798       -1.0891397547        0.0106857194
 C         -5.9111068648       -0.2913733258       -0.1599756100
 C         -7.1405532896       -0.7545401521        0.2796925287
 C         -7.2336580942       -2.0002807201        0.8826295606
 C         -6.1057247499       -2.7893968764        1.0474265771
 C         -4.8727044598       -2.3308602133        0.6100301011
 H         -3.9708686010       -2.9132903929        0.7102100094
 H         -6.1806697235       -3.7582743274        1.5144485237
 H         -8.1915189240       -2.3593109115        1.2244479216
 H         -8.0200914053       -0.1444352537        0.1516168543
 H         -5.7906504882        0.6649759745       -0.6410944879
 H         -2.4492229151       -0.0012080014        1.5039642898
 H         -3.4919816380        2.7959824617       -0.4830966936
 H         -1.9360182544        4.6158134026       -1.1239497925
 H          0.4599479373        4.4257421399       -0.6383806501
 H          1.9127053880        2.3220760723        1.6836271878
 C          2.6667538783        3.3170885266       -0.0543546230
 C          2.9359226242        4.6260264339        0.6245319385
 C          4.0093612427        3.5831359140        0.5555814613
 H          4.8502087469        3.7474465507       -0.1013341623
 H          4.2590390041        3.0432896861        1.4573999442
 H          3.0428552552        5.5101504892        0.0145315657
 H          2.4608106764        4.8010561801        1.5777789009
 H          2.6016010599        3.3015065564       -1.1366231341
