  62
        -98.94968101
 C          1.5026954078        1.0453428377        0.0390750630
 C          2.5245698798        0.6239871975        0.9203661238
 C          3.0501323204       -0.7252333079        0.6899512665
 C          2.5233123158       -1.4896960211       -0.2843264841
 C          2.9271439158       -2.9009857120       -0.6155232268
 C          4.1511361888       -3.0048094875       -1.5360271223
 C          5.4889584710       -2.6587114028       -0.8810626834
 H          5.6022112098       -3.2368485976        0.0365346971
 H          6.2743520436       -2.9798353327       -1.5681092906
 C          5.6778113076       -1.1658109059       -0.5781108287
 H          4.9533565577       -0.5835044018       -1.1519161510
 H          6.6721202773       -0.8511000472       -0.9025696710
 C          5.5465024434       -0.7976294081        0.8996951091
 H          5.6623774205        0.2849674556        0.9950476195
 H          6.3476316349       -1.2736805748        1.4693302108
 C          4.2026618019       -1.1862859364        1.5304370658
 H          4.1545556254       -2.2644737019        1.6837293007
 H          4.1226096897       -0.6924813417        2.5022875654
 H          4.2017956019       -4.0357321370       -1.8938230237
 H          3.9913540747       -2.3591395031       -2.4025126739
 H          3.1131896752       -3.4523855773        0.3068304408
 H          2.0717557488       -3.3554111402       -1.1205567122
 O          1.5215823137       -1.0583896353       -1.0939901327
 C          0.9900844365        0.2125511283       -0.9546312368
 O          0.0831464980        0.4828891727       -1.7665235236
 O          2.9709344098        1.3400000909        1.8587927979
 C          0.9027984369        2.4284666271        0.2066994283
 C         -0.5925836184        2.3387898315        0.3862612954
 C         -1.4797351698        3.2534810418       -0.1685361777
 C         -2.8440891002        3.1140607443        0.0195570195
 C         -3.3536811353        2.0513133014        0.7427542636
 C         -2.4738504728        1.1367865011        1.3090553209
 C         -1.1080024634        1.3011819460        1.1526105771
 H         -0.4411229224        0.5793561673        1.6017783559
 N         -2.9368363624        0.0147227969        2.0317241817
 S         -2.6429871388       -1.4782036898        1.3225584132
 O         -3.2902174959       -2.4403541737        2.1897251298
 O         -1.2291669904       -1.6555855023        1.1166238517
 C         -3.5254363688       -1.3927816053       -0.2256964436
 C         -4.8136108548       -1.8923435174       -0.2720441253
 C         -5.5460772454       -1.7564107584       -1.4395644665
 C         -4.9842371726       -1.1141843019       -2.5331306740
 C         -3.6926121492       -0.6156865057       -2.4681680619
 C         -2.9499808733       -0.7517749756       -1.3043156086
 H         -1.9404745796       -0.3750314975       -1.2383851219
 H         -3.2476033014       -0.1156480109       -3.3134704322
 H         -5.5545626995       -1.0020538163       -3.4417312358
 H         -6.5497048651       -2.1466839162       -1.4921726879
 H         -5.2058330521       -2.3855384380        0.6028689577
 H         -3.9171323745        0.0701129942        2.2754218668
 H         -4.4187061145        1.9257578990        0.8678085421
 H         -3.5197115808        3.8323393382       -0.4188722053
 H         -1.1014721627        4.0749363298       -0.7548198976
 H          1.3402055831        2.8275326577        1.1347727359
 C          1.3136999291        3.3206968820       -0.9478262776
 C          1.5238650702        4.7900104290       -0.7384388790
 C          2.7001150979        3.8891206146       -0.9608715196
 H          3.2266302223        3.9452194264       -1.9018194770
 H          3.3358086230        3.6565650464       -0.1188619462
 H          1.2450426349        5.4688173543       -1.5302859835
 H          1.3691612714        5.1811165305        0.2557655041
 H          0.8996995111        2.9894898561       -1.8938931566
