  62
        -98.94468513
 C          2.0170562016        0.7498116097        0.5608558936
 C          1.9551244238        0.0468689007       -0.6665144622
 C          1.9869594446       -1.4159413716       -0.5646563420
 C          2.0123340311       -2.0015796326        0.6457872147
 C          1.9939247279       -3.4824244516        0.9140031543
 C          3.3714616025       -4.1544891842        0.8288319582
 C          3.9362841667       -4.3048033137       -0.5842144415
 H          4.7917506772       -4.9796732727       -0.5166456293
 H          3.1919001257       -4.7832378569       -1.2212125460
 C          4.3951964230       -2.9879255493       -1.2255799431
 H          5.3759946621       -3.1287128164       -1.6850446415
 H          4.5092124891       -2.2261665288       -0.4509940321
 C          3.4594079882       -2.4517906346       -2.3090128061
 H          3.8593012095       -1.5002906757       -2.6680514700
 H          3.4354408516       -3.1472995494       -3.1507467411
 C          2.0202466454       -2.2100386664       -1.8349373208
 H          1.4941099303       -1.6293087743       -2.5966528476
 H          1.4993637489       -3.1582741956       -1.7022289278
 H          3.2740465715       -5.1505511605        1.2667198567
 H          4.0734570622       -3.5873906384        1.4443631154
 H          1.6093473841       -3.6071040152        1.9288660365
 H          1.3036470437       -3.9664522972        0.2220730242
 O          2.0391597179       -1.2899301164        1.8056708400
 C          2.0436068490        0.0954152455        1.7904569978
 O          2.0749510111        0.6224420071        2.9233235692
 H         -0.4589217614        1.1892299847        0.9621364850
 C         -0.5079718419        1.9840740413        0.2305953086
 C          0.6452928794        2.6838657083       -0.1012106480
 C          0.5522283541        3.7148359307       -1.0266950878
 C         -0.6604518557        4.0048097979       -1.6287780677
 C         -1.7939287227        3.2699756799       -1.3350408244
 C         -1.7145829131        2.2500481625       -0.3926582057
 N         -2.8466424339        1.4904301441       -0.0473667268
 S         -2.6163790632       -0.1323933714        0.3633886425
 O         -2.2664110912       -0.2108450884        1.7609612919
 O         -1.7107027259       -0.7696873258       -0.5652484360
 C         -4.2741745053       -0.7491850235        0.1306482439
 C         -5.2061366840       -0.5440289554        1.1305681186
 C         -6.5041767737       -0.9896879849        0.9380655334
 C         -6.8471553421       -1.6285693457       -0.2444379217
 C         -5.9007391582       -1.8291134880       -1.2380095804
 C         -4.6009023737       -1.3846020537       -1.0523752889
 H         -3.8285681240       -1.5241929856       -1.7918998235
 H         -6.1688416675       -2.3291620263       -2.1546921525
 H         -7.8577880185       -1.9751170681       -0.3914035070
 H         -7.2416303928       -0.8380080743        1.7095661667
 H         -4.8890263749       -0.0512182176        2.0348474262
 H         -3.6071060077        1.6010514711       -0.7046269532
 H         -2.7312219208        3.4794318561       -1.8275772578
 H         -0.7183184352        4.8030102501       -2.3532098482
 H          1.4313799655        4.2805132284       -1.2885982019
 C          1.9357199105        2.2660360073        0.5634199776
 H          1.8938496105        2.5689417928        1.6205267015
 C          3.1692754461        2.8703760337       -0.0738969216
 C          3.6613572885        4.2182489104        0.3579993747
 C          4.4208089738        2.9849447849        0.7416480320
 H          5.3683225684        2.7895072254        0.2625545313
 H          4.3730717767        2.6500500893        1.7679533746
 H          3.1056303861        4.7295737339        1.1294164303
 H          4.0927557653        4.8718927239       -0.3849925434
 H          3.2736662029        2.5932118030       -1.1165489002
 O          1.8787756763        0.6115218199       -1.7893677576
