  62
        -98.93989671
 C         -2.1765423812       -0.8468779880       -0.3686750981
 C         -1.5142010058        0.2294272088       -1.0011568907
 C         -1.9748519427        1.5902401909       -0.6616780900
 C         -2.9452651381        1.7544207260        0.2549089394
 C         -3.6352729035        2.9957336385        0.7827663859
 C         -3.1216429202        4.3867990824        0.4241332762
 C         -1.7902424132        4.7595286938        1.0780657958
 H         -1.4409218998        5.6973906057        0.6410266660
 H         -1.9664547038        4.9341096343        2.1425359480
 C         -0.6812024297        3.7162997748        0.9662619972
 H          0.1856827444        4.0819617607        1.5244478745
 H         -0.9885089097        2.7848416717        1.4467884875
 C         -0.2125317402        3.3993118564       -0.4510417484
 H          0.6455746508        2.7279671213       -0.3558087226
 H          0.1252642744        4.3138521890       -0.9437116793
 C         -1.2523933155        2.7136056314       -1.3505256857
 H         -0.7222204920        2.2650306593       -2.1957530367
 H         -1.9580178822        3.4357058080       -1.7540686089
 H         -3.8723561338        5.0982755738        0.7787103334
 H         -3.0677363085        4.4988892234       -0.6547329828
 H         -4.6765394187        2.9135124931        0.4516332109
 H         -3.6513658932        2.8892566702        1.8724558356
 O         -3.5339354880        0.6857190990        0.8699195372
 C         -3.1702784648       -0.6149101003        0.5847152949
 O         -3.8057685023       -1.4743466315        1.2302303276
 O         -0.5798598648        0.0926845661       -1.8361953480
 C         -1.8381500174       -2.3122268214       -0.6003920732
 C         -0.7048953294       -2.7381317631        0.3035526979
 C         -0.8290366752       -3.8434710347        1.1361943506
 C          0.2029146846       -4.2003812444        1.9861502376
 C          1.3584824201       -3.4430984362        2.0447144111
 C          1.4918016586       -2.3333094730        1.2165420846
 C          0.4772800321       -2.0125503104        0.3286376230
 H          0.5921707627       -1.1619463089       -0.3196035275
 N          2.6437426928       -1.5334251359        1.2661724866
 S          2.5342689714        0.1489611401        1.2948539970
 O          3.4046698715        0.5600527934        2.3806338581
 O          1.1641554002        0.5862509099        1.3793772920
 C          3.3013552449        0.6376007285       -0.2384786769
 C          2.5571193617        0.7744141230       -1.3924577937
 C          3.2029661916        1.1419112700       -2.5638863878
 C          4.5711364011        1.3611180427       -2.5661603834
 C          5.3057067658        1.2173462133       -1.3986790610
 C          4.6671786438        0.8529057071       -0.2253025208
 H          5.1955649660        0.7445083924        0.7074863422
 H          6.3700455107        1.3892469482       -1.3994083975
 H          5.0655276210        1.6466342744       -3.4813653520
 H          2.6250895329        1.2518105998       -3.4677559859
 H          1.4918007132        0.6010736157       -1.3804593840
 H          3.3238613314       -1.8417873715        1.9463268781
 H          2.1508320118       -3.7020717526        2.7312004439
 H          0.0974974044       -5.0629842133        2.6267920173
 H         -1.7476105352       -4.4117950783        1.1295424723
 H         -2.7328205121       -2.8738256224       -0.2967270570
 C         -1.5285306831       -2.6525191037       -2.0450038887
 C         -1.7340100344       -4.0581488856       -2.5201622892
 C         -2.6532932558       -2.9682327724       -2.9822085532
 H         -2.5823399682       -2.6269416315       -4.0038354980
 H         -3.6573072612       -2.9438939732       -2.5833176627
 H         -1.0292449202       -4.4700058171       -3.2258348866
 H         -2.1178181846       -4.7765403633       -1.8116821003
 H         -0.6875976673       -2.1023487066       -2.4446655521
