  62
        -98.93428772
 C          2.5920158353        0.4439122150       -0.1811714664
 C          2.3168149452        1.5919113716       -0.9598218108
 C          1.6315374516        2.6886214108       -0.2707401247
 C          1.3024739381        2.5548802256        1.0271723169
 C          0.5542440521        3.5629497406        1.8559479160
 C         -0.9685322719        3.4739636539        1.6775457492
 C         -1.5025947398        4.0523578598        0.3655760567
 H         -1.0876660480        5.0492697939        0.2105795150
 H         -2.5828042971        4.1624306686        0.4816616296
 C         -1.2258128615        3.1761914937       -0.8644567199
 H         -2.1304291439        3.1097175497       -1.4749103038
 H         -0.9827272358        2.1633770056       -0.5324314078
 C         -0.1109502940        3.6907539227       -1.7755957934
 H         -0.4133347247        4.6406970463       -2.2227162197
 H          0.0323445614        2.9685626900       -2.5836809643
 C          1.2399519709        3.8907266375       -1.0775831987
 H          1.2088447536        4.7766629413       -0.4439762115
 H          2.0029953207        4.0358152302       -1.8467351717
 H         -1.4284397378        4.0170151985        2.5067223407
 H         -1.2624445336        2.4237273300        1.7572703009
 H          0.8970622197        4.5708124970        1.6189637464
 H          0.7934111365        3.3478795839        2.8995230369
 O          1.6289643991        1.4563608207        1.7556450325
 C          2.2353005726        0.3573789331        1.1667159402
 O          2.4132426877       -0.6028644323        1.9382930952
 O          2.6119944506        1.6844341941       -2.1840587290
 C          3.1662247093       -0.7871408104       -0.8778916203
 C          2.1911337380       -1.9100376406       -0.6115472920
 C          2.4143775656       -3.1284696836        0.0142294697
 C          1.3608259219       -3.9862534115        0.2947792207
 C          0.0576803611       -3.6507809183       -0.0166908318
 C         -0.1766076016       -2.4467777344       -0.6644283351
 C          0.8787974615       -1.6140021145       -0.9794136990
 H          0.6731297021       -0.6697718180       -1.4711476320
 N         -1.5190232922       -2.0324910792       -0.9114344563
 S         -2.0788520163       -1.2092165550        0.4673808735
 O         -1.3627358344        0.0371620776        0.6314380925
 O         -2.0382305989       -2.1296700765        1.5748515791
 C         -3.7745060966       -0.8831923783        0.0209037005
 C         -4.6432808059       -1.9546918472       -0.0591846490
 C         -5.9587795070       -1.7230915409       -0.4268900341
 C         -6.3808822865       -0.4314842355       -0.7066140094
 C         -5.4971665057        0.6332459625       -0.6208056073
 C         -4.1788097341        0.4080317492       -0.2553259798
 H         -3.4571112358        1.2050250663       -0.1717700145
 H         -5.8275795080        1.6366598346       -0.8362240212
 H         -7.4057399763       -0.2532601930       -0.9914790460
 H         -6.6495597672       -2.5479899630       -0.4936979479
 H         -4.2707789618       -2.9379276328        0.1746834856
 H         -1.5467497679       -1.3643953522       -1.6737235309
 H         -0.7719607316       -4.2826645769        0.2535582019
 H          1.5637872226       -4.9206013349        0.7962519023
 H          3.3999213777       -3.4194344039        0.3294159574
 H          3.0956430313       -0.5512082724       -1.9539351766
 C          4.6515220456       -0.9024516060       -0.5818141166
 C          5.2506920317       -1.5466482389        0.6285892721
 C          5.4707064341       -2.1494587244       -0.7282540896
 H          6.4531386394       -2.0522565336       -1.1663934767
 H          4.9720569024       -3.0687117534       -0.9875215560
 H          6.0808318709       -1.0423938843        1.1023529346
 H          4.5834389742       -2.0154338861        1.3331181182
 H          5.1385187090        0.0149594085       -0.9066505731
