  62
        -98.94242978
 C          1.7841791916        0.7423578112        0.3472449988
 C          3.0592664123        0.7737847616        0.9609634711
 C          3.9105025397       -0.4007954927        0.7309607539
 C          3.4389952172       -1.4190318804       -0.0120551526
 C          4.2179317097       -2.6508789250       -0.3695215699
 C          4.9651581856       -2.4687450391       -1.6980817394
 C          5.7685915174       -1.1708776999       -1.7821499725
 H          6.2772250710       -1.1654017942       -2.7486972040
 H          5.0789779060       -0.3234820927       -1.7782661819
 C          6.8005832519       -0.9891928575       -0.6602796563
 H          7.0035468698       -1.9493541336       -0.1846484615
 H          7.7375608432       -0.6409955150       -1.1000036779
 C          6.4035752798        0.0316799860        0.4077205498
 H          6.1094161411        0.9683326557       -0.0727055166
 H          7.2837766958        0.2414171660        1.0212418958
 C          5.2771939458       -0.3985425196        1.3558724330
 H          5.2328236409        0.3300554278        2.1706580204
 H          5.5087269251       -1.3767472753        1.7818532734
 H          4.2340161087       -2.4715140009       -2.5099367846
 H          5.6320828567       -3.3212444657       -1.8388904549
 H          4.9235849814       -2.8732130093        0.4284803050
 H          3.5192138639       -3.4832478316       -0.4679166003
 O          2.1999717394       -1.4217843179       -0.5671608658
 C          1.3446416609       -0.3410474911       -0.4130972409
 O          0.2445482508       -0.4717851022       -0.9825417692
 O          3.4601608757        1.7337085841        1.6719626189
 C          0.8577272931        1.9328454247        0.5189518091
 C         -0.4847406782        1.4673621508        1.0211164794
 C         -0.5342894091        0.6570925220        2.1532341147
 C         -1.7340160963        0.1580827832        2.6211470267
 C         -2.9159279743        0.4507829070        1.9620346503
 C         -2.8794598628        1.2709433889        0.8446766144
 C         -1.6757086301        1.7876540056        0.3878588200
 H         -1.6771610327        2.4104203120       -0.4935094250
 N         -4.0998625482        1.5214318958        0.1537381333
 S         -4.3356789783        0.4301307892       -1.1190362424
 O         -3.3472630065        0.6367339973       -2.1563692674
 O         -5.7079001408        0.6145538528       -1.5420941630
 C         -4.1370516277       -1.1565937559       -0.3458620897
 C         -2.8811090475       -1.7276015041       -0.2814232648
 C         -2.7426295317       -2.9482117506        0.3616633866
 C         -3.8478891649       -3.5686733200        0.9234851369
 C         -5.1014433820       -2.9801747333        0.8463853326
 C         -5.2497010215       -1.7599033762        0.2077358637
 H         -6.2018749988       -1.2628556041        0.1194907519
 H         -5.9589260122       -3.4663337115        1.2830205094
 H         -3.7297750026       -4.5172015263        1.4235326079
 H         -1.7652857231       -3.4005811376        0.4215643606
 H         -2.0341519381       -1.2212379041       -0.7202753699
 H         -4.1255710752        2.4502698054       -0.2492122976
 H         -3.8592671277        0.0548497338        2.3008372068
 H         -1.7495719116       -0.4724131969        3.4967173065
 H          0.3925132962        0.4114924071        2.6539563060
 H          1.3246235566        2.5616093080        1.2915088423
 C          0.7860244176        2.7235103687       -0.7710433734
 C          0.4982996087        4.1943773821       -0.7407182512
 C          1.8739646762        3.7061634255       -1.0793671026
 H          2.2170344096        3.7927789702       -2.0995768717
 H          2.6559576529        3.8240005760       -0.3436417129
 H         -0.1031143044        4.6185609405       -1.5311280750
 H          0.3472420977        4.6544990943        0.2241186970
 H          0.3899220791        2.1411894423       -1.5973817139
