  62
        -98.94468669
 C         -2.0128895510       -0.7540656279        0.5611695638
 C         -1.9572240023       -0.0517750379       -0.6668586067
 C         -2.0037979496        1.4107721085       -0.5663078615
 C         -2.0335431873        1.9972607657        0.6436429421
 C         -2.0310822358        3.4784680584        0.9103509048
 C         -3.4167946068        4.1339537879        0.8290379204
 C         -3.9877954399        4.2761440626       -0.5823746824
 H         -4.8515544453        4.9401445856       -0.5124643213
 H         -3.2515448012        4.7635979981       -1.2219986246
 C         -4.4320814822        2.9532380553       -1.2216522623
 H         -4.5350241381        2.1907105094       -0.4462580719
 H         -5.4156494962        3.0818063123       -1.6787900598
 C         -3.4927092191        2.4275884454       -2.3071962621
 H         -3.4795237759        3.1226309451       -3.1495437782
 H         -3.8821872042        1.4710540075       -2.6643446612
 C         -2.0493676565        2.2033928529       -1.8371359612
 H         -1.5185784178        1.6283510583       -2.5999425024
 H         -1.5394406488        3.1578670694       -1.7066376055
 H         -4.1099727144        3.5590110717        1.4472882653
 H         -3.3300243570        5.1315264514        1.2657212412
 H         -1.6446532073        3.6087123185        1.9238039106
 H         -1.3489840030        3.9699376638        0.2156008041
 O         -2.0510107388        1.2865333000        1.8042212441
 C         -2.0446323825       -0.0988119265        1.7902250314
 O         -2.0717095284       -0.6250252855        2.9235469929
 H          0.4659945740       -1.1717462391        0.9520604333
 C          0.5198920758       -1.9732302106        0.2282047099
 C         -0.6291799371       -2.6828542641       -0.0971206367
 C         -0.5299815503       -3.7218393687       -1.0130211314
 C          0.6845145764       -4.0107970499       -1.6118530636
 C          1.8139214566       -3.2674798097       -1.3239401637
 C          1.7285101772       -2.2391484049       -0.3912423029
 N          2.8573343248       -1.4722751992       -0.0514982250
 S          2.6235131008        0.1518020439        0.3511832410
 O          2.2632529504        0.2363277398        1.7457545758
 O          1.7248577200        0.7854308770       -0.5867687786
 C          4.2834972315        0.7660222231        0.1279790113
 C          4.6205575147        1.3951704469       -1.0554785323
 C          5.9229104491        1.8355107266       -1.2334365343
 C          6.8614626032        1.6369365523       -0.2320371527
 C          6.5080347877        1.0046833674        0.9509575308
 C          5.2074460782        0.5633036538        1.1358102474
 H          4.8821739379        0.0754137829        2.0398621952
 H          7.2393187456        0.8545762709        1.7286263181
 H          7.8741332951        1.9799032432       -0.3732535080
 H          6.1992223504        2.3305858312       -2.1503693225
 H          3.8542074593        1.5332304796       -1.8014895680
 H          3.6177582479       -1.5838389750       -0.7086541050
 H          2.7528441173       -3.4770156124       -1.8133165656
 H          0.7471771418       -4.8155882253       -2.3285446682
 H         -1.4057215211       -4.2952199931       -1.2695409323
 C         -1.9221663379       -2.2696381654        0.5654088333
 H         -1.8797792003       -2.5710031926        1.6229719354
 C         -3.1517898777       -2.8816380098       -0.0723910969
 C         -3.6390140179       -4.2301205421        0.3630999652
 C         -4.4046318543       -2.9987769088        0.7407343420
 H         -5.3518511410       -2.8090568644        0.2587550683
 H         -4.3606932936       -2.6600875203        1.7659558052
 H         -3.0828340626       -4.7362860499        1.1375959167
 H         -4.0658954580       -4.8882351232       -0.3785545467
 H         -3.2551043780       -2.6085362950       -1.1162350256
 O         -1.8744561870       -0.6167107389       -1.7891290288
