  62
        -98.94547467
 C          2.0078112550        1.5184630215       -0.0533560937
 C          1.7435473489        0.3072204787       -0.7378516177
 C          2.8642879785       -0.6428362044       -0.8036399517
 C          4.0471466629       -0.3076257373       -0.2567650987
 C          5.2559120356       -1.1962930011       -0.2149074633
 C          5.2850236939       -2.0320985748        1.0722470497
 C          3.9687318709       -2.7503964034        1.3691045927
 H          4.1155396104       -3.3347410554        2.2800671490
 H          3.1971373795       -2.0076745007        1.5847055567
 C          3.4833947484       -3.6716437378        0.2416201557
 H          4.3103520448       -3.8985710294       -0.4323004334
 H          3.1547035834       -4.6163520655        0.6797581954
 C          2.3055941027       -3.1221064549       -0.5653491291
 H          1.5084758833       -2.8101761532        0.1140921362
 H          1.9173741091       -3.9353781939       -1.1840159802
 C          2.6208865805       -1.9504192568       -1.5033182147
 H          3.4669769538       -2.2077767203       -2.1439221472
 H          1.7438620681       -1.7885152272       -2.1365634164
 H          6.0912556361       -2.7635095205        0.9909266470
 H          5.5116231036       -1.3693328483        1.9107532211
 H          5.2516004599       -1.8495431956       -1.0852137801
 H          6.1468939931       -0.5669289356       -0.2489750241
 O          4.2671180337        0.8762866776        0.3713177309
 C          3.2520408490        1.8090025387        0.5048923113
 O          3.5756142934        2.8392639953        1.1305154790
 H         -1.7035848558        2.3687092705       -0.7956159960
 C         -1.5454547485        1.8973916715        0.1614655733
 C         -0.2907123457        1.9194024461        0.7468988718
 C         -0.1223841405        1.2990043317        1.9824822494
 C         -1.1799827947        0.6689229110        2.6088065779
 C         -2.4298539244        0.6379232587        2.0145055450
 C         -2.6077366324        1.2528822704        0.7835331589
 N         -3.8711402446        1.2166507199        0.1665796666
 S         -4.6501966869       -0.2630396316        0.0743918762
 O         -5.5850993418       -0.1241429123       -1.0200743803
 O         -5.2265412306       -0.5820844668        1.3570697011
 C         -3.3797119088       -1.4442848958       -0.3360752926
 C         -2.9694241344       -2.3694895153        0.6013008176
 C         -1.9606241291       -3.2577478816        0.2656165098
 C         -1.3830490767       -3.2034292754       -0.9928583096
 C         -1.8034731466       -2.2651906271       -1.9218562604
 C         -2.8102242043       -1.3744607996       -1.5916704272
 H         -3.1665392817       -0.6377367023       -2.2936768035
 H         -1.3448089712       -2.2190434835       -2.8961317551
 H         -0.5982345212       -3.8958430011       -1.2524256950
 H         -1.6264206086       -3.9872575582        0.9861360431
 H         -3.4484904759       -2.3816382652        1.5667497798
 H         -3.8956563323        1.6824876836       -0.7290275557
 H         -3.2664919197        0.1480304344        2.4851963846
 H         -1.0322361574        0.1939495890        3.5669982601
 H          0.8572728738        1.3135884660        2.4416164681
 C          0.9090070551        2.5569170064        0.0911164143
 H          1.3028479641        3.3281741312        0.7682283300
 C          0.6155003033        3.1928990407       -1.2514714191
 C          0.0241013973        4.5681432514       -1.3200155329
 C          1.4559770707        4.3474504595       -1.7034722158
 H          1.7274771688        4.4110497514       -2.7465973980
 H          2.2283028423        4.6915521984       -1.0309796377
 H         -0.6859122929        4.7885990316       -2.1030882109
 H         -0.1790794386        5.0719612692       -0.3871323190
 H          0.3211741701        2.4686704360       -2.0025752685
 O          0.6364981070        0.0340791672       -1.2685434783
