  62
        -98.94137205
 C          1.8445043693        1.3564351889        0.3471865305
 C          1.5646766188        0.0818692989       -0.2057635392
 C          2.3919591385       -1.0280141013        0.2972621610
 C          3.3240006886       -0.7914648314        1.2372807008
 C          4.2809566583       -1.8143585617        1.7755204010
 C          5.5774115782       -1.8463209823        0.9534499209
 C          5.3523387281       -1.9317819825       -0.5563590491
 H          4.8764624684       -1.0100986424       -0.8991508192
 H          6.3359561980       -1.9788762630       -1.0285834092
 C          4.5103723176       -3.1339426623       -1.0063677588
 H          4.9904643874       -3.5925907026       -1.8732747088
 H          4.4852337074       -3.8849215321       -0.2157697087
 C          3.0797342277       -2.7858699919       -1.4209855488
 H          2.6480938273       -3.6596188518       -1.9162727286
 H          3.0982679579       -1.9712242620       -2.1491793989
 C          2.1345285579       -2.3919750713       -0.2792101388
 H          2.1649463777       -3.1531097112        0.5033694914
 H          1.1190984479       -2.3574922310       -0.6844196487
 H          6.1731502879       -2.6994387025        1.2831947010
 H          6.1434119386       -0.9358401525        1.1644950106
 H          4.5217590885       -1.5518809716        2.8072362809
 H          3.8060296379       -2.7936459115        1.7624186412
 O          3.5315261791        0.4366215986        1.7780701606
 C          2.7966783195        1.5331523988        1.3540274204
 O          3.0713792399        2.5936979888        1.9505772102
 O          0.6753004687       -0.1349229609       -1.0661711191
 C          1.0759301998        2.5956627991       -0.0770779696
 C         -0.4047152104        2.3066726397       -0.1637581095
 C         -1.2112612103        2.7347177397       -1.2104857695
 C         -2.5684840904        2.4605589702       -1.2110912493
 C         -3.1483472406        1.7377889506       -0.1858789691
 C         -2.3455180606        1.2817735906        0.8526250309
 C         -0.9946720905        1.5896883401        0.8701529507
 H         -0.3785099306        1.2429978600        1.6914425508
 N         -2.9090066008        0.4994116510        1.8732249811
 S         -4.0484328113       -0.6535989387        1.4573670214
 O         -5.3552916211       -0.0419527382        1.4318809114
 O         -3.8779545916       -1.7138214986        2.4280989316
 C         -3.6388917116       -1.2337937192       -0.1810901885
 C         -2.3432406918       -1.6199526397       -0.4587992385
 C         -2.0354063221       -2.0586035301       -1.7359343785
 C         -3.0238877822       -2.1153625299       -2.7057668784
 C         -4.3237784120       -1.7370400793       -2.4079645184
 C         -4.6356029817       -1.2878897890       -1.1352450784
 H         -5.6289418216       -0.9693678886       -0.8629639284
 H         -5.0916124221       -1.7829003492       -3.1634143983
 H         -2.7760711124       -2.4533669502       -3.6995853883
 H         -1.0185164122       -2.3290379105       -1.9696647385
 H         -1.5824849717       -1.5597677698        0.3033088214
 H         -2.2364911909        0.1280110008        2.5274366511
 H         -4.2036493006        1.5174081710       -0.1718971290
 H         -3.1825924903        2.8080648903       -2.0275733093
 H         -0.7790256402        3.2745882594       -2.0361886296
 H          1.2217404201        3.3139431292        0.7475678402
 C          1.6303210399        3.2587181487       -1.3317748498
 C          3.0190987898        2.9731094481       -1.8186985199
 C          1.8373268695        2.4887065984       -2.6005105897
 H          1.6121569696        2.9724886083       -3.5396155697
 H          1.6032213591        1.4362826885       -2.5811423094
 H          3.5997275700        3.7942372178       -2.2122307501
 H          3.6071738395        2.2496822080       -1.2722349798
 H          1.2974488103        4.2869246588       -1.4319721500
