  62
        -98.93211813
 C         -2.5177441097       -1.1214274189        0.4636616103
 C         -3.3651082949       -0.7906765406       -0.6204633938
 C         -4.5627295161        0.0124667081       -0.2962690919
 C         -4.7784064680        0.4112927930        0.9700175775
 C         -5.9139128064        1.1974350760        1.5919857711
 C         -6.9084885527        1.9586836163        0.7194413127
 C         -6.3190086238        3.1542791573       -0.0282243400
 H         -7.0878864905        3.5540571408       -0.6929803851
 H         -6.0720624017        3.9312560984        0.6996836331
 C         -5.0587914753        2.8681468417       -0.8410632533
 H         -4.2523460596        2.5604105265       -0.1722021240
 H         -4.7457161203        3.8038789600       -1.3121409441
 C         -5.2153516964        1.8230128393       -1.9437145809
 H         -4.2984592231        1.8331346740       -2.5390258324
 H         -6.0425121046        2.1013442693       -2.5996436369
 C         -5.4367175717        0.3790594616       -1.4613977050
 H         -6.4828221598        0.1949306502       -1.2290908740
 H         -5.1580186745       -0.2944223207       -2.2771418058
 H         -7.6830001343        2.3391809138        1.3910398146
 H         -7.3990080501        1.2802625816        0.0276676426
 H         -5.4429379010        1.8961253929        2.2908021165
 H         -6.4702926487        0.4791569445        2.2044669771
 O         -3.9219471994        0.0787951416        1.9814545518
 C         -2.7907948031       -0.6813740833        1.7599984395
 O         -2.1153603837       -0.9037120659        2.7860351502
 O         -3.1597951529       -1.1427618316       -1.8092959136
 C         -1.2606125338       -1.9624358695        0.3152508616
 C         -0.0753063161       -1.1037393887       -0.0432485230
 C         -0.1034288662       -0.2495906616       -1.1413795727
 C          1.0018527013        0.5187362595       -1.4586466598
 C          2.1508648231        0.4580868034       -0.6891450238
 C          2.1875952003       -0.3857135216        0.4122548679
 C          1.0780080326       -1.1606732297        0.7253011721
 H          1.1074105633       -1.8099801998        1.5905838038
 N          3.3470019046       -0.4384973470        1.2051720630
 S          4.8131994689       -0.7301280769        0.4384809196
 O          4.6275318807       -1.4975252788       -0.7710319779
 O          5.6586686355       -1.3210451517        1.4524952081
 C          5.4262877063        0.8941595424        0.0459904043
 C          5.5817869638        1.7991575481        1.0777004886
 C          6.0690254969        3.0639643441        0.7898489400
 C          6.3934965508        3.3993482150       -0.5164204896
 C          6.2348303664        2.4781910565       -1.5403876811
 C          5.7468512203        1.2114039474       -1.2593676844
 H          5.6025879803        0.4643334214       -2.0236226492
 H          6.4884385033        2.7406871332       -2.5549370647
 H          6.7729041872        4.3845210824       -0.7373964363
 H          6.1940584542        3.7830767929        1.5833293229
 H          5.3222746996        1.4981344325        2.0789876917
 H          3.2520316197       -1.0177620240        2.0269727695
 H          3.0133402867        1.0567441794       -0.9329480086
 H          0.9683046818        1.1746968041       -2.3153592659
 H         -0.9977486859       -0.2020891122       -1.7438643784
 H         -1.0760599147       -2.3734892973        1.3208199351
 C         -1.4446830657       -3.1485699844       -0.6225305317
 C         -0.7788532350       -3.2763359100       -1.9560005180
 C         -0.3253771148       -4.1298404734       -0.8124891788
 H         -0.5549223690       -5.1845985214       -0.8238547630
 H          0.6275866940       -3.8907450384       -0.3627917123
 H         -1.3461768928       -3.7307752234       -2.7536951800
 H         -0.1273967904       -2.4824191420       -2.2847743113
 H         -2.4438598128       -3.5658202686       -0.5476398330
