  62
        -98.94585263
 C          2.1022753987        1.0167301514       -0.4684553309
 C          1.1293063882        1.4478723808       -1.4065508507
 C          0.3298964477        2.6185192304       -1.0353714306
 C          0.5175033477        3.1905937707        0.1674619992
 C         -0.2194700028        4.3869761603        0.7053352293
 C         -1.5769522924        4.0397603097        1.3319388397
 C         -2.6882699125        3.7190035990        0.3317159500
 H         -3.6295137524        3.7328380886        0.8849513102
 H         -2.7383684331        4.5073876589       -0.4207816101
 C         -2.5426973420        2.3536408490       -0.3546107799
 H         -3.5096832317        1.8432720185       -0.3573815196
 H         -1.8605049015        1.7276975894        0.2263530100
 C         -2.0637057224        2.4196435191       -1.8045514600
 H         -1.9817827920        1.3978227991       -2.1793746699
 H         -2.8081173128        2.9427302086       -2.4094118699
 C         -0.7078025828        3.1100006997       -2.0004845904
 H         -0.3524312429        2.8824320698       -3.0088274205
 H         -0.8208281333        4.1902609797       -1.9060735406
 H         -1.4425375218        3.1898540399        2.0065401597
 H         -1.8905052427        4.8976672997        1.9318746596
 H         -0.3586252334        5.1234924302       -0.0870268308
 H          0.4172560372        4.8222243808        1.4787433090
 O          1.4443089182        2.7414191512        1.0497959791
 C          2.2388643287        1.6321990016        0.7773589690
 O          3.0119594890        1.3394148921        1.7080079789
 O          0.9465739182        0.8749109505       -2.5154955906
 C          2.8921177592       -0.2240602283       -0.8531497309
 C          2.0533301299       -1.4510396087       -0.5914611505
 C          2.0138344802       -2.5147469788       -1.4856691104
 C          1.1996137608       -3.6076118392       -1.2439451300
 C          0.3731497011       -3.6381604095       -0.1343817498
 C          0.3959957008       -2.5726575293        0.7572777100
 C          1.2617562402       -1.5109213289        0.5460552297
 H          1.2760278700       -0.6992471888        1.2570480396
 N         -0.4874319590       -2.5006632996        1.8560956902
 S         -1.5981557296       -1.2414295002        1.7818207004
 O         -0.9168213503        0.0257731201        1.8058672700
 O         -2.5263380892       -1.4945035105        2.8622812406
 C         -2.4155764299       -1.4949850308        0.2165027406
 C         -3.6248030096       -2.1632983015        0.1991866710
 C         -4.2219418497       -2.4411837619       -1.0195864788
 C         -3.5939614502       -2.0638480318       -2.1972481590
 C         -2.3780898605       -1.3991343211       -2.1633348494
 C         -1.7808842704       -1.1071267407       -0.9466992996
 H         -0.8402443306       -0.5809863102       -0.8973997999
 H         -1.8791162009       -1.1033155110       -3.0729336696
 H         -4.0530319503       -2.2870006021       -3.1472514189
 H         -5.1694297295       -2.9547795524       -1.0477802685
 H         -4.0732515592       -2.4397669216        1.1398578611
 H         -0.9815832985       -3.3641818599        2.0378062805
 H         -0.2930747384       -4.4704711798        0.0351382305
 H          1.1842402011       -4.4300509293       -1.9422558499
 H          2.6103267200       -2.4719801686       -2.3848471105
 H          3.0320651689       -0.1541442683       -1.9446245210
 C          4.2712793694       -0.3085284975       -0.2197497212
 C          4.5836123501       -1.2202579872        0.9248666488
 C          5.1335732800       -1.5170692571       -0.4360794613
 H          6.1886702498       -1.3698460766       -0.6094046716
 H          4.7071892202       -2.3495824474       -0.9741058311
 H          5.2458300902       -0.8509499567        1.6925796386
 H          3.7889434206       -1.8433620275        1.3059720091
 H          4.7726963289        0.6534158628       -0.2151023815
