  62
        -98.94555845
 C          1.9639836885        1.5141790102       -0.1016336304
 C          1.6819669904        0.2619303405       -0.7000738268
 C          2.8091744405       -0.6804327774       -0.7607352187
 C          4.0142898329       -0.2996130591       -0.2992906295
 C          5.2316726645       -1.1763916550       -0.2557593678
 C          5.3333620598       -1.9160421125        1.0856049847
 C          4.0382353312       -2.6109318404        1.5062724084
 H          4.2370414886       -3.1246111590        2.4494768304
 H          3.2762429089       -1.8543224833        1.7074219472
 C          3.4954260836       -3.6156074970        0.4805805948
 H          3.1942416890       -4.5234634539        1.0075704694
 H          4.2856339886       -3.8945319257       -0.2174786000
 C          2.2743439914       -3.1284815859       -0.3021870547
 H          1.5171422711       -2.7562611119        0.3922328339
 H          1.8487376783       -3.9877574683       -0.8267050843
 C          2.5404975617       -2.0376138811       -1.3469359129
 H          3.3572862342       -2.3448708388       -2.0030713575
 H          1.6344031915       -1.9244546742       -1.9489191436
 H          6.1371568238       -2.6512252260        1.0149440110
 H          5.6018599554       -1.1936686018        1.8601049984
 H          5.1886121817       -1.8915516282       -1.0747548521
 H          6.1143601538       -0.5469707291       -0.3811931260
 O          4.2528912053        0.9268497894        0.2334925729
 C          3.2320549606        1.8538221844        0.3674549300
 O          3.5733641996        2.9245082208        0.9103627125
 H         -1.8009826047        2.3131734565       -0.6937028713
 C         -1.5869478587        1.8570967601        0.2600218825
 C         -0.3037363224        1.9032550620        0.7787919917
 C         -0.0649380075        1.3058571436        2.0140214813
 C         -1.0792914938        0.6676358888        2.7007680134
 C         -2.3566530635        0.6083619273        2.1705079936
 C         -2.6062842933        1.2058539932        0.9435118388
 N         -3.9008964878        1.1449547284        0.3923816610
 S         -4.6002617305       -0.3697203585        0.2349164252
 O         -5.6644045766       -0.1913847982       -0.7277326418
 O         -4.9982386385       -0.8467855895        1.5356905579
 C         -3.3224335664       -1.4128759522       -0.4396236254
 C         -2.6228948992       -2.2656061280        0.3886993587
 C         -1.6067024546       -3.0363872770       -0.1516569119
 C         -1.3067814265       -2.9375932494       -1.5004481422
 C         -2.0161443350       -2.0732268356       -2.3183446243
 C         -3.0322070435       -1.2996118867       -1.7843234278
 H         -3.6122125738       -0.6225062088       -2.3911699253
 H         -1.7746882182       -1.9947408576       -3.3662211805
 H         -0.5132628021       -3.5372034436       -1.9175496139
 H         -1.0493094824       -3.7086384299        0.4812082583
 H         -2.8889255556       -2.3163745762        1.4319334045
 H         -3.9870172184        1.6516857126       -0.4773508602
 H         -3.1587451397        0.1043462828        2.6847689085
 H         -0.8752708613        0.2073937736        3.6559680952
 H          0.9360398965        1.3409932305        2.4234633634
 C          0.8532409129        2.5388769455        0.0483031074
 H          1.2596643290        3.3453856631        0.6750644831
 C          0.4881808619        3.1107780946       -1.3055580813
 C         -0.1220737654        4.4757135137       -1.4082380055
 C          1.2924195276        4.2512825789       -1.8496626980
 H          1.5130788773        4.2691195030       -2.9064613031
 H          2.0919222484        4.6330983010       -1.2315345711
 H         -0.2862753012        5.0203439547       -0.4907200959
 H         -0.8710724546        4.6529938030       -2.1655614148
 H          0.1666347838        2.3494249029       -2.0073028099
 O          0.5538668026       -0.0527381310       -1.1579703525
