  62
        -98.94239591
 C         -1.5118746606       -1.3212131599        0.2910181091
 C         -2.2239444905       -0.8654960189       -0.8445958906
 C         -3.2657358206        0.1395150409       -0.5824664898
 C         -3.4885076707        0.5474071498        0.6804149606
 C         -4.4745638007        1.6064706395        1.0790411014
 C         -3.8153786307        2.9926879094        1.1057524127
 C         -3.0115415006        3.3159487505       -0.1539059570
 H         -2.6125547306        4.3260377804       -0.0372303061
 H         -2.1564611306        2.6382652306       -0.2151008875
 C         -3.8167513805        3.2314195117       -1.4583639171
 H         -4.8840450305        3.2658912315       -1.2368898372
 H         -3.5846079704        4.1056000022       -2.0704499364
 C         -3.5171920004        1.9977223424       -2.3125386382
 H         -2.4383799604        1.9107444025       -2.4676417882
 H         -3.9750916503        2.1460426133       -3.2941603381
 C         -4.0343239904        0.6617482319       -1.7635305394
 H         -5.0967395305        0.7478690517       -1.5268210194
 H         -3.9168432604       -0.0872926974       -2.5522131000
 H         -4.5943181607        3.7444193193        1.2444851432
 H         -3.1410576607        3.0396191787        1.9639365128
 H         -5.3085959806        1.6020879901        0.3802290113
 H         -4.8474670208        1.3718678186        2.0773848412
 O         -2.7926225207        0.0758814589        1.7460532102
 C         -1.7802284107       -0.8569639810        1.5787339195
 O         -1.2017450108       -1.1850099519        2.6325434592
 H          0.3738924694        0.2077661106       -0.2293192694
 C          0.9825585795       -0.4785318089       -0.8063520100
 C          0.6993488994       -1.8368648590       -0.7638989412
 C          1.5029290995       -2.6964346783       -1.5047794019
 C          2.5537679196       -2.2078821077       -2.2619385013
 C          2.8300495996       -0.8526663476       -2.2996501701
 C          2.0286254395        0.0135947417       -1.5717045495
 N          2.3361583695        1.3995069817       -1.5713177682
 S          3.5757790995        1.7819967008       -0.5057946978
 O          3.6114384495        3.2245989807       -0.4310806365
 O          4.7781103295        1.1303987912       -0.9553783183
 C          3.0336234293        1.0886598494        1.0448076416
 C          2.2185285493        1.8469808687        1.8615717622
 C          1.6840818592        1.2668895678        3.0004540316
 C          1.9582819891       -0.0602584625        3.2928689405
 C          2.7786534992       -0.8075793318        2.4622973599
 C          3.3207769293       -0.2323321608        1.3242293404
 H          3.9576576293       -0.7825577602        0.6505499200
 H          2.9856544892       -1.8405503720        2.6913631790
 H          1.5158548591       -0.5166113833        4.1638444100
 H          1.0418818291        1.8420128072        3.6483533221
 H          2.0235868293        2.8741964090        1.5951650430
 H          1.5376893495        1.9760984515       -1.3437431978
 H          3.6556177396       -0.4541128572       -2.8659776297
 H          3.1673373896       -2.8916454772       -2.8282610819
 H          1.3063687995       -3.7560691183       -1.4846071528
 C         -0.4039684706       -2.3428496997        0.1344667783
 H          0.0255624893       -2.4769900006        1.1391012882
 C         -0.9773046506       -3.6684503193       -0.3292620529
 C         -0.4065269307       -4.9626030098        0.1656583760
 C         -1.7467718507       -4.5010251402        0.6505949963
 H         -2.6301990807       -5.0183366099        0.3077266758
 H         -1.8251345008       -4.1270275311        1.6613393566
 H          0.4213065793       -4.9154796104        0.8569774361
 H         -0.3711561706       -5.8026790692       -0.5117188947
 H         -1.3462758005       -3.6262975584       -1.3475567729
 O         -1.9988283104       -1.2675543879       -2.0158763409
