  62
        -98.93891970
 C          2.3464875499        0.7505706728        0.6012321498
 C          3.4249548105        0.9899214712       -0.2858150448
 C          4.6847271411        0.2979328096        0.0296236874
 C          4.7521115431       -0.5065708893        1.1047432952
 C          5.9528429712       -1.3139159543        1.5028163822
 C          5.9161502261       -2.7139772306        0.8742944323
 C          5.6324494347       -2.7096074602       -0.6278862220
 H          5.6618982721       -3.7474008006       -0.9669231993
 H          4.6163894286       -2.3454359682       -0.7973593983
 C          6.6160565807       -1.8724487852       -1.4573906497
 H          6.9057366632       -2.4459990165       -2.3403526029
 H          7.5225366118       -1.6863900670       -0.8803231405
 C          6.0510264127       -0.5413431631       -1.9563028539
 H          6.7403195829       -0.1380607339       -2.7029040172
 H          5.0933605825       -0.7134140630       -2.4538536866
 C          5.8507359025        0.5406381719       -0.8877273918
 H          6.7709385319        0.6666773402       -0.3139831223
 H          5.6351800983        1.4806577145       -1.4036983632
 H          5.1335230486       -3.2943398088        1.3684754768
 H          6.8734503423       -3.2025905653        1.0647853602
 H          6.8548958449       -0.7892605399        1.1940692750
 H          5.9545096858       -1.4130060957        2.5895992896
 O          3.6989558688       -0.7123049284        1.9364570654
 C          2.4824859675       -0.0962073759        1.7066627577
 O          1.6072440466       -0.3716278169        2.5532781885
 H         -1.4335814302        0.2425032148        0.8480133918
 C         -1.1180183269        0.1703226253       -0.1829888037
 C          0.1149414666        0.6741063291       -0.5698514565
 C          0.5031292251        0.5475346222       -1.8995975418
 C         -0.3316557068       -0.0665983523       -2.8151032866
 C         -1.5740887138       -0.5408533861       -2.4324379829
 C         -1.9687551992       -0.4227346011       -1.1051425338
 N         -3.2172956664       -0.9019029553       -0.6774573243
 S         -4.0312717591       -0.0249560273        0.5152372854
 O         -3.8856892155        1.3922960020        0.2720266625
 O         -3.6083050663       -0.4969875505        1.8101241101
 C         -5.7129582248       -0.5328021201        0.2085411590
 C         -6.1627800359       -1.7200486748        0.7548566028
 C         -7.4610884834       -2.1278950021        0.4926954279
 C         -8.2826458548       -1.3473163209       -0.3072195001
 C         -7.8176125348       -0.1575262699       -0.8470989661
 C         -6.5199846477        0.2559626320       -0.5897484804
 H         -6.1182658918        1.1775788388       -0.9792880857
 H         -8.4597568054        0.4488481061       -1.4653608740
 H         -9.2929162654       -1.6668307213       -0.5083860949
 H         -7.8271514943       -3.0504974136        0.9133803336
 H         -5.4911709943       -2.2875670464        1.3779887765
 H         -3.8263200972       -1.1562246580       -1.4431057691
 H         -2.2314028499       -1.0034503630       -3.1531364093
 H         -0.0181661219       -0.1618626414       -3.8438524793
 H          1.4613946386        0.9379800938       -2.2054702943
 C          0.9753023714        1.3874146696        0.4461806744
 H          0.4846773572        1.2733587082        1.4231958738
 C          1.0286762606        2.8678460294        0.1124733922
 C         -0.2117180171        3.6884020081        0.2930069331
 C          0.9535768712        3.8756803774        1.2170262634
 H          1.5395313742        4.7785638198        1.1318424675
 H          0.8668136211        3.5043991478        2.2282791618
 H         -1.0939756360        3.1900936877        0.6697040690
 H         -0.4243016941        4.4630484409       -0.4279258809
 H          1.6651606861        3.0944280050       -0.7325095338
 O          3.3674795346        1.7384545073       -1.2974671165
