  62
        -98.94506196
 C         -0.7474922500       -1.6278381503        0.2605709401
 C         -1.0904733205       -0.4939028206       -0.5179659801
 C         -2.1347901510        0.3717100390        0.0480395898
 C         -2.6084370509        0.1363519389        1.2837337898
 C         -3.6340556913        0.9620741784        2.0123325397
 C         -5.0855195911        0.5967085576        1.6717945997
 C         -5.5539047613        1.0266760872        0.2810933496
 H         -6.6380923813        0.9003042366        0.2558485096
 H         -5.3460631919        2.0879794573        0.1424254895
 C         -4.9352385709        0.2230688974       -0.8711998203
 H         -4.5050433204       -0.7016532924       -0.4796967801
 H         -5.7185720007       -0.0624341431       -1.5768987902
 C         -3.8627043913        0.9720830578       -1.6621635403
 H         -4.3127225517        1.8308755375       -2.1645044305
 H         -3.4714508509        0.2986420979       -2.4285383702
 C         -2.6796127616        1.4661968186       -0.8183553104
 H         -1.8806322117        1.7775759589       -1.4944992504
 H         -2.9794409920        2.3195494985       -0.2105367705
 H         -5.7257345314        1.0790651374        2.4141283796
 H         -5.2070224006       -0.4835850924        1.7807008898
 H         -3.4648116819        2.0197853185        1.8083133695
 H         -3.4734663813        0.7852048986        3.0782962997
 O         -2.1787012604       -0.9065613908        2.0441710299
 C         -1.2774476099       -1.8270763804        1.5367009701
 O         -1.0277598594       -2.7763200102        2.3104671602
 O         -0.5648496707       -0.2003440904       -1.6227029201
 C          0.2400812806       -2.6758955698       -0.2138889298
 C          1.6830983404       -2.2650494091       -0.0212847298
 C          2.6863524709       -3.2301043185       -0.0198028297
 C          4.0074202407       -2.8723068378        0.1730681903
 C          4.3565844400       -1.5491537976        0.3795544701
 C          3.3631202195       -0.5776694981        0.3723070600
 C          2.0404042597       -0.9391636289        0.1582313200
 H          1.2833714593       -0.1722107192        0.1613503999
 N          3.6817244888        0.7733389621        0.5472707598
 S          2.5790490482        1.9058901615        1.0712931997
 O          3.4000828576        3.0128013520        1.5204956995
 O          1.6675546984        1.3715464412        2.0588513897
 C          1.6915563979        2.4311863009       -0.3800157704
 C          2.1299644281        2.1026151610       -1.6455217504
 C          1.4372418579        2.5947347905       -2.7404862504
 C          0.3353126175        3.4127018399       -2.5546369806
 C         -0.0915698627        3.7355840298       -1.2758179406
 C          0.5894114475        3.2376508803       -0.1774324805
 H          0.2833020674        3.4502732303        0.8351177894
 H         -0.9530033131        4.3678214294       -1.1306421307
 H         -0.2009490127        3.7938491495       -3.4095396706
 H          1.7594859881        2.3338381905       -3.7356267404
 H          2.9872987085        1.4612520614       -1.7648900203
 H          4.6293034087        0.9830617326        0.8204070898
 H          5.3849803598       -1.2688907171        0.5472153101
 H          4.7745019411       -3.6314663574        0.1766700104
 H          2.4229330414       -4.2669971987       -0.1589138595
 H          0.0664960810       -3.5568925899        0.4216050003
 C         -0.0013966692       -3.0722728402       -1.6607359797
 C          0.1715226516       -4.4944892401       -2.0965263496
 C         -1.2016627087       -3.9022759108       -2.0005433197
 H         -1.7408560688       -3.6807703612       -2.9089725097
 H         -1.8355451086       -4.2156607610       -1.1830178496
 H          0.5821364217       -4.6850599500       -3.0760783295
 H          0.4510193119       -5.2237862499       -1.3512816195
 H          0.2709208004       -2.2914467301       -2.3593791398
