  62
        -98.94397385
 C         -1.9758007709       -1.2197242101       -0.1764418004
 C         -2.3399319210       -0.0261640794       -0.8454521793
 C         -3.7766319109        0.2903682607       -0.8508354087
 C         -4.6414824109       -0.5470855497       -0.2506054392
 C         -6.1195726908       -0.3152396896       -0.1336506387
 C         -6.4629465805        0.4355207693        1.1606970320
 C         -5.6082932103        1.6804327090        1.3992039129
 H         -4.5719852403        1.3765770787        1.5646109624
 H         -5.9589779700        2.1430796882        2.3242749234
 C         -5.6565636704        2.7111856900        0.2627097638
 H         -5.7737228202        3.7063725596        0.6967877847
 H         -6.5277390605        2.5281156106       -0.3673648761
 C         -4.4008109906        2.7518733406       -0.6101936964
 H         -3.5146230704        2.8426989499        0.0234952235
 H         -4.4487470406        3.6482775712       -1.2344150456
 C         -4.2007467609        1.5532628314       -1.5461137975
 H         -3.3879401210        1.8026738219       -2.2348609174
 H         -5.1076611311        1.3869120120       -2.1311353474
 H         -6.3191873104       -0.2443238915        2.0035626014
 H         -7.5169558704        0.7169614095        1.1268624225
 H         -6.6204014109       -1.2847287996       -0.1246888594
 H         -6.4621738010        0.2518456312       -0.9969381181
 O         -4.2544124709       -1.6906380103        0.3699734697
 C         -2.9182793709       -2.0480159305        0.4347912991
 O         -2.6995163609       -3.1091037311        1.0533622081
 O         -1.5174922310        0.7389805210       -1.4132896688
 C         -0.5177326710       -1.6427561903       -0.0893191011
 C          0.2426842393       -0.5989402011        0.6912438697
 C         -0.0358810604       -0.4630333222        2.0499732398
 C          0.5934603199        0.5055636470        2.8063303605
 C          1.5186871799        1.3554222274        2.2246489411
 C          1.8012597196        1.2319489186        0.8695675309
 C          1.1687258393        0.2529597693        0.1122597802
 H          1.3842463191        0.1983254902       -0.9406993499
 N          2.7093165995        2.1083746290        0.2583286215
 S          3.8255331092        1.6054418299       -0.8750187692
 O          4.7072061193        2.7409848399       -1.0326111584
 O          3.1688628389        1.1341212910       -2.0664857495
 C          4.7072037192        0.2716333091       -0.0842080306
 C          4.2535293591       -1.0242375808       -0.2255224416
 C          4.9227556291       -2.0422923514        0.4356564874
 C          6.0262178193       -1.7496501822        1.2220660874
 C          6.4701056495       -0.4423366324        1.3529647484
 C          5.8034568295        0.5801559383        0.6980177495
 H          6.1211718896        1.6082202582        0.7622740903
 H          7.3310485696       -0.2181501230        1.9619228184
 H          6.5443728193       -2.5459642327        1.7327336566
 H          4.5789420889       -3.0591232313        0.3321548266
 H          3.3958555489       -1.2171991301       -0.8480618416
 H          3.1135052198        2.7942425784        0.8785681120
 H          2.0063100501        2.1190256269        2.8114557017
 H          0.3651973701        0.6009731561        3.8572102907
 H         -0.7653182304       -1.1240910925        2.4985300594
 H         -0.5119675010       -2.5747345608        0.4932470681
 C          0.0434758787       -1.9303906592       -1.4650540115
 C          1.2102480585       -2.8586888692       -1.6118483825
 C         -0.1548070316       -3.2946236486       -2.0514036826
 H         -0.3563938318       -3.3768381577       -3.1089288726
 H         -0.6797349116       -4.0220848991       -1.4491326431
 H          1.9466054384       -2.6442279386       -2.3724001625
 H          1.6126795387       -3.2990222500       -0.7118383730
 H         -0.0255530014       -1.0867611886       -2.1416595407
