  62
        -98.94627180
 C         -1.3025391507       -1.2030711492        0.5064125294
 C         -1.6787673908       -0.4766577486       -0.6501449202
 C         -2.4553655007        0.7493077613       -0.4072655794
 C         -2.6648918905        1.1601779007        0.8559078508
 C         -3.4688961904        2.3665590006        1.2447286015
 C         -4.9397789904        1.9985435905        1.4857614316
 C         -5.5575804006        1.1578845411        0.3682323813
 H         -5.0674569806        0.1818863611        0.3434851107
 H         -6.6029675206        0.9848351210        0.6330609214
 C         -5.4824665708        1.7980946717       -1.0250072784
 H         -6.4514275509        1.6820176520       -1.5150965683
 H         -5.2944029607        2.8682517117       -0.9310950879
 C         -4.4363713710        1.1779626821       -1.9534091389
 H         -4.6190471311        1.5492141926       -2.9652565987
 H         -4.5647643510        0.0929443622       -1.9753509194
 C         -2.9731974809        1.4861463619       -1.6099249890
 H         -2.3572420511        1.1524551823       -2.4497522193
 H         -2.8480266609        2.5638737919       -1.4895186585
 H         -5.0072520202        1.4316564000        2.4173273613
 H         -5.5107572103        2.9207511605        1.6083799521
 H         -3.0524154702        2.7774844001        2.1663163016
 H         -3.3974363505        3.1159901509        0.4586074819
 O         -2.1908129204        0.4920354902        1.9394164704
 C         -1.5217566004       -0.7108267198        1.7934210297
 O         -1.1639002803       -1.2321803003        2.8707835494
 H          1.2870889895       -1.2108799899        1.7368254890
 C          1.6660029094       -1.4918002694        0.7618732088
 C          0.8460940292       -2.2201963790       -0.0927246015
 C          1.3353598090       -2.5716027884       -1.3426028817
 C          2.6117458589       -2.1923791683       -1.7252601317
 C          3.4226112491       -1.4631994587       -0.8751314215
 C          2.9422824293       -1.1140421693        0.3809982887
 N          3.7525470895       -0.3488150197        1.2484050790
 S          4.2242380094        1.1389482505        0.6353561596
 O          5.3345421893        0.9491401209       -0.2630631807
 O          4.4780986197        1.9729524900        1.7886225600
 C          2.8027164593        1.7241611410       -0.2694373199
 C          2.8214819791        1.7337647217       -1.6487934699
 C          1.6851869590        2.1386124221       -2.3302831895
 C          0.5555107791        2.5201664918       -1.6247165791
 C          0.5510510094        2.5022614111       -0.2386344691
 C          1.6830958995        2.0963934407        0.4477649305
 H          1.7125279296        2.0743414602        1.5261986905
 H         -0.3327394705        2.7910526909        0.3083350712
 H         -0.3293120910        2.8307257121       -2.1563228988
 H          1.6804339588        2.1498032226       -3.4081159495
 H          3.7212109490        1.4302939419       -2.1583088702
 H          3.3369752997       -0.2234988502        2.1609715591
 H          4.4137401890       -1.1507686086       -1.1617104815
 H          2.9783708287       -2.4664558078       -2.7025768719
 H          0.7130553188       -3.1277767980       -2.0233978419
 C         -0.5525411107       -2.5216663292        0.3873688386
 H         -0.4766516006       -2.9179818997        1.4097626584
 C         -1.3024977909       -3.5195405487       -0.4668177517
 C         -0.9781445810       -4.9777155288       -0.3523558125
 C         -2.2737428909       -4.4532841590        0.1880497580
 H         -3.1874265410       -4.6961174087       -0.3334807720
 H         -2.3902552407       -4.3835173195        1.2601395980
 H         -1.0027368811       -5.5841610283       -1.2447677928
 H         -0.2138192909       -5.2651398391        0.3538990672
 H         -1.5685365611       -3.1309160082       -1.4416656615
 O         -1.3963310810       -0.8280380080       -1.8229038104
