  62
        -98.95003488
 C         -1.9005316692       -1.0488068399        0.0178923506
 C         -1.3162530290       -1.8132932903       -1.0221175891
 C         -0.2392416190       -2.7259656100       -0.6203410387
 C          0.0993617209       -2.8301144596        0.6777247214
 C          1.1284292810       -3.7642010393        1.2554056518
 C          2.5705805209       -3.2430476292        1.1968554117
 C          3.1992146210       -3.2313882196       -0.1965356883
 H          4.2686982910       -3.0553792995       -0.0670306383
 H          3.0832751811       -4.2120496698       -0.6591942080
 C          2.6330292010       -2.1506633900       -1.1269469187
 H          2.1063690709       -1.3962768998       -0.5384845790
 H          3.4492367610       -1.6288676501       -1.6328385688
 C          1.6900150711       -2.6631060504       -2.2156459486
 H          1.3105965511       -1.7913456806       -2.7566260989
 H          2.2455327012       -3.2842373906       -2.9226278283
 C          0.4920344611       -3.4692531103       -1.6959866484
 H          0.8240354612       -4.4420911002       -1.3323720780
 H         -0.2024164488       -3.6228977507       -2.5259810984
 H          2.5990960808       -2.2329840591        1.6113849313
 H          3.1744171609       -3.8875958190        1.8395067919
 H          1.0693968911       -4.7266328395        0.7459515921
 H          0.8582204409       -3.9093969490        2.3035838918
 O         -0.5067688792       -2.0999968493        1.6505527511
 C         -1.4828377892       -1.1593724895        1.3439183407
 O         -1.8891105193       -0.5119843492        2.3267028005
 O         -1.6868735390       -1.7435606607       -2.2248701391
 C         -2.9606081592       -0.0179295201       -0.3350580298
 C         -2.3914332393        1.3551037800       -0.0696335202
 C         -2.9418898594        2.2679869402        0.8195058495
 C         -2.3146317596        3.4808042804        1.0489480791
 C         -1.1273973895        3.7989040102        0.4156445991
 C         -0.5726033294        2.8964019900       -0.4864397706
 C         -1.2206892693        1.6974524298       -0.7372169902
 H         -0.7950683092        1.0056674596       -1.4501145600
 N          0.6264747606        3.1977960398       -1.1547650106
 S          1.8420152307        2.0683270299       -1.3490165401
 O          2.9393339507        2.8218299898       -1.9152964403
 O          1.3664526108        0.9542181396       -2.1254018798
 C          2.2837615006        1.5469799605        0.2990555701
 C          3.4490347406        2.0296186407        0.8623522600
 C          3.7799395105        1.6498390212        2.1530895301
 C          2.9369056305        0.8086290914        2.8636906404
 C          1.7667594906        0.3375333011        2.2882273604
 C          1.4386490907        0.7035622506        0.9921989303
 H          0.5357391907        0.3425888404        0.5238911503
 H          1.0959103706       -0.3091256588        2.8335100006
 H          3.1897830605        0.5153579017        3.8703871105
 H          4.6904749304        2.0122629414        2.6022244901
 H          4.0727567106        2.6822173106        0.2732456998
 H          1.0203905805        4.0962966500       -0.9154971309
 H         -0.6322622296        4.7377411403        0.6118810288
 H         -2.7498491497        4.1825115206        1.7440915588
 H         -3.8534453795        2.0269970004        1.3404033095
 H         -3.1146211891       -0.1198560805       -1.4194450097
 C         -4.2674193392       -0.2957225300        0.3741950002
 C         -5.5494349692        0.2345148597       -0.1925638500
 C         -5.2515322391       -1.2325587503       -0.2570476095
 H         -5.8077624891       -1.9021492801        0.3816109707
 H         -4.9876594590       -1.6612488706       -1.2130538594
 H         -6.3152506593        0.5719229099        0.4891383898
 H         -5.4920604992        0.8034546794       -1.1082987502
 H         -4.1612774293       -0.3377496096        1.4518306703
