  62
        -98.93569189
 C         -2.2448281012       -0.1774629897        0.3726117294
 C         -3.3538412613       -0.7823852101       -0.2705480701
 C         -4.4429056811        0.1297049498       -0.6606492709
 C         -4.3201617709        1.4491222299       -0.4349185721
 C         -5.3697437407        2.4762846999       -0.7444947830
 C         -6.3006495307        2.6993713111        0.4555985868
 C         -6.8447307209        1.4067266017        1.0639394179
 H         -6.0171824410        0.8447496420        1.5031547584
 H         -7.5113933409        1.6881638025        1.8820232876
 C         -7.5995346010        0.5074948210        0.0749315087
 H         -8.5171174011        0.1565937615        0.5518725390
 H         -7.8910032909        1.0856387602       -0.8025623018
 C         -6.8260680412       -0.7347558996       -0.3710303802
 H         -7.5223080914       -1.4013165199       -0.8867877396
 H         -6.4522725414       -1.2680668889        0.5066315903
 C         -5.6473503712       -0.4826671106       -1.3195322604
 H         -5.3169491013       -1.4522631610       -1.7032546895
 H         -5.9771112411        0.1272549687       -2.1627757210
 H         -5.7449548906        3.2343572517        1.2293488163
 H         -7.1312020706        3.3310636309        0.1354235662
 H         -4.8694779805        3.4158784496       -0.9849498638
 H         -5.9454392607        2.1504743892       -1.6086329227
 O         -3.2260644508        1.9984234403        0.1543614874
 C         -2.1778065509        1.2025527805        0.5821768982
 O         -1.2527253908        1.8330953208        1.1358111376
 H          1.5996695188       -0.4210162798        1.0103516997
 C          1.3151621787       -0.8010021006        0.0406733100
 C         -0.0100466713       -1.1208987806       -0.2165446098
 C         -0.3554379914       -1.5868604017       -1.4815703693
 C          0.6086382786       -1.7220493227       -2.4632775892
 C          1.9281427287       -1.3953931027       -2.2054932095
 C          2.2857015587       -0.9362068616       -0.9427877799
 N          3.6301637188       -0.6505074216       -0.6480044101
 S          4.0058127090        0.6184762592        0.4004062188
 O          3.7369548889        0.1982243005        1.7523379691
 O          3.3659689792        1.8377702890       -0.0407458123
 C          5.7679269490        0.7116823787        0.1437453787
 C          6.5702750988       -0.2413913709        0.7427208196
 C          7.9381526288       -0.1972526613        0.5261595896
 C          8.4783140290        0.7933287979       -0.2808688913
 C          7.6609828492        1.7443526575       -0.8727593122
 C          6.2914398392        1.7051303679       -0.6614105221
 H          5.6177130493        2.4272174376       -1.0942693728
 H          8.0838683693        2.5151711069       -1.4966642928
 H          9.5434383490        0.8259438175       -0.4472828813
 H          8.5771902187       -0.9331928010        0.9867746302
 H          6.1065022487       -0.9858953103        1.3683739302
 H          4.2048621388       -0.6082163925       -1.4793625601
 H          2.6780325687       -1.4983516535       -2.9751579094
 H          0.3286510086       -2.0818014035       -3.4419702589
 H         -1.3836047514       -1.8459241417       -1.6826946891
 C         -1.0433702713       -0.9643605495        0.8700570301
 H         -0.5934866912       -0.3361140789        1.6566393495
 C         -1.4238048615       -2.2904878488        1.5167583213
 C         -1.0969545418       -3.6255699494        0.9258763524
 C         -0.3581510717       -3.1457569785        2.1364070520
 H         -0.5581221418       -3.6125889576        3.0890454224
 H          0.6661983084       -2.8276946188        2.0069290718
 H         -0.5712283418       -3.6523241903       -0.0151512875
 H         -1.8277437419       -4.4115395792        1.0388115731
 H         -2.3637270515       -2.2208913282        2.0549729812
 O         -3.4500569615       -2.0109170703       -0.5177073490
