  62
        -98.93785367
 C         -2.5856222193       -1.1393812772        0.4912448885
 C         -3.4340254026       -0.8386592471       -0.6033919426
 C         -4.6013155015        0.0047784943       -0.2937041529
 C         -4.7991175927        0.4343692960        0.9647610110
 C         -5.9118978118        1.3426557006        1.3993097848
 C         -5.4895365027        2.8164655198        1.3217388326
 C         -4.8433377449        3.2044677034       -0.0082203067
 H         -4.6155380737        4.2714879533        0.0404361215
 H         -3.8916849083        2.6774550617       -0.1091323370
 C         -5.7120877540        2.9229852960       -1.2421538523
 H         -6.7523834180        2.7932910416       -0.9414020114
 H         -5.6719540571        3.7908964503       -1.9037313129
 C         -5.2688272044        1.7135427104       -2.0673818345
 H         -5.8061295849        1.7363998760       -3.0192342015
 H         -4.2023443777        1.7945264873       -2.2917797095
 C         -5.5245044541        0.3414009552       -1.4311533580
 H         -6.5672116785        0.2703625142       -1.1151465682
 H         -5.3444897186       -0.4180999708       -2.1976517801
 H         -4.7715898776        3.0134319400        2.1212883278
 H         -6.3704568495        3.4371343375        1.4955421393
 H         -6.7820660848        1.1694040714        0.7691043499
 H         -6.1688718943        1.1011270148        2.4321089493
 O         -3.9656959478        0.1217262713        1.9903414743
 C         -2.8444301705       -0.6596050787        1.7781824538
 O         -2.1641175839       -0.8662623507        2.8043201072
 H          1.0275152024       -1.7927614512        1.6364025053
 C          1.0006002507       -1.1829563201        0.7428162446
 C         -0.1501302274       -1.1616449483       -0.0312514329
 C         -0.1752055968       -0.3581270010       -1.1671862928
 C          0.9301961034        0.3965671696       -1.5148908009
 C          2.0761969971        0.3727330904       -0.7388573211
 C          2.1102778320       -0.4209246114        0.3992701208
 N          3.2659727224       -0.4353122151        1.1985722392
 S          4.7404410045       -0.7421136288        0.4541161269
 O          4.5698635174       -1.5518036732       -0.7297022368
 O          5.5814497223       -1.2908669173        1.4950506469
 C          5.3443340595        0.8725739358        0.0106546730
 C          5.5016758096        1.8078369173        1.0146921901
 C          5.9788031818        3.0668099580        0.6870650359
 C          6.2913687568        3.3665793207       -0.6306998288
 C          6.1313897841        2.4152856513       -1.6265285410
 C          5.6537085494        1.1540826555       -1.3055655028
 H          5.5095317622        0.3842487810       -2.0469426203
 H          6.3757808291        2.6500232784       -2.6501011695
 H          6.6624847247        4.3474398829       -0.8827756171
 H          6.1051660977        3.8091372991        1.4586616493
 H          5.2519566757        1.5338502253        2.0261967493
 H          3.1706744823       -0.9805100805        2.0432370372
 H          2.9384450535        0.9615826287       -1.0059247448
 H          0.8989771788        1.0135262026       -2.4002027576
 H         -1.0677142773       -0.3390792039       -1.7740520071
 C         -1.3387489229       -1.9997268307        0.3634740027
 H         -1.1509241345       -2.3783472344        1.3809486448
 C         -1.5408804276       -3.2147203204       -0.5327045960
 C         -0.8638542437       -3.4068545405       -1.8528944373
 C         -0.4416499047       -4.2265674931       -0.6733056534
 H         -0.6940288655       -5.2758441802       -0.6479947616
 H          0.5111689086       -3.9911754614       -0.2213603899
 H         -1.4326108172       -3.8786930378       -2.6394334470
 H         -0.1908645465       -2.6408022974       -2.2038152567
 H         -2.5496228662       -3.6072053065       -0.4538463314
 O         -3.2480434603       -1.2415305048       -1.7792887542
