  62
        -98.93953307
 C         -2.6245012199       -1.2503900903        0.0499347009
 C         -2.7517086802       -0.2360113310       -0.9291414498
 C         -4.1030709103        0.3155597286       -1.1041352801
 C         -5.1154713102       -0.1693602711       -0.3622441598
 C         -6.5262884503        0.3411898286       -0.3983273301
 C         -6.7409276505        1.4510726793        0.6403744492
 C         -5.6731511207        2.5447238095        0.6061083784
 H         -5.9438176808        3.2869302899        1.3603436480
 H         -4.7135688606        2.1176347799        0.9071566387
 C         -5.5137154409        3.2346437986       -0.7558913320
 H         -6.3958239508        3.0499068480       -1.3700548419
 H         -5.4495412711        4.3130518487       -0.5962666127
 C         -4.2609694108        2.8242057483       -1.5322594918
 H         -3.3823341908        2.9182320089       -0.8885400019
 H         -4.1327781210        3.5222915078       -2.3638280122
 C         -4.2759835705        1.4080168879       -2.1213366108
 H         -3.4220943105        1.3222395676       -2.7996764208
 H         -5.1908625105        1.2585170774       -2.6981671707
 H         -6.7362063704        0.9997876099        1.6353284795
 H         -7.7240578006        1.8949048990        0.4735179889
 H         -6.7465865504        0.7152560079       -1.3961405403
 H         -7.1983967601       -0.4887611214       -0.1739435995
 O         -4.9565649999       -1.1591314004        0.5538407509
 C         -3.7095522498       -1.7124816800        0.7937409612
 O         -3.6968562296       -2.5923126194        1.6789074518
 O         -1.7900680003        0.1868507788       -1.6221613901
 C         -1.2647334098       -1.8670385098        0.3242320813
 C         -0.2907308300       -0.7906807194        0.7399486305
 C         -0.6545985802        0.0776541913        1.7661172100
 C          0.2023077596        1.0764435417        2.1854803793
 C          1.4427576996        1.2335882916        1.5920737992
 C          1.8207247097        0.3675531910        0.5761486097
 C          0.9599005099       -0.6434577495        0.1628756604
 H          1.2685694801       -1.3088746200       -0.6283051891
 N          3.0733297197        0.5273233908       -0.0441182104
 S          4.4079986697        0.7996554717        0.9550971494
 O          4.4105752099       -0.1494852275        2.0464920100
 O          4.4270843994        2.1906868720        1.3315739184
 C          5.7444067997        0.4592133613       -0.1732847204
 C          6.2904475100       -0.8098793287       -0.2112841196
 C          7.3089355400       -1.0741153491       -1.1134309594
 C          7.7592224998       -0.0713936695       -1.9590860201
 C          7.2014551295        1.1975508104       -1.9086440710
 C          6.1830704795        1.4687414208       -1.0087803211
 H          5.7247938393        2.4405705507       -0.9283397818
 H          7.5564677093        1.9748890700       -2.5658974515
 H          8.5520773598       -0.2797948798       -2.6599829300
 H          7.7467623102       -2.0585645390       -1.1533677788
 H          5.9164644201       -1.5561779783        0.4713645109
 H          3.2647661098       -0.2117154996       -0.7071053199
 H          2.1216474794        2.0086261719        1.9091790686
 H         -0.0967108805        1.7425837522        2.9813956089
 H         -1.6244426701       -0.0425159286        2.2311045701
 H         -1.4045199097       -2.5444164893        1.1795547117
 C         -0.8120721197       -2.6794854305       -0.8709339982
 C          0.1165026906       -3.8412825902       -0.6869846574
 C         -1.3238379594       -4.0788248307       -1.0256751572
 H         -1.5711656193       -4.4313040715       -2.0157103170
 H         -1.9790867593       -4.4539673804       -0.2528864270
 H          0.8571134606       -4.0365891406       -1.4480171973
 H          0.4445338606       -4.0652802695        0.3169853927
 H         -0.7161277798       -2.0801831911       -1.7690893186
