  62
        -98.93596153
 C          2.2943334241        1.2796329027        0.1837128275
 C          3.2178125121        0.6012577542        1.0158721722
 C          4.0263160879       -0.4609093121        0.3929935383
 C          3.8165846562       -0.7756650746       -0.8986395314
 C          4.5043062629       -1.7754320045       -1.8047050426
 C          5.3871262142       -2.8774756223       -1.2244339056
 C          4.6437245140       -3.9240294906       -0.3953169297
 H          4.0067045355       -4.5095351992       -1.0632925097
 H          5.3814613826       -4.6017301677        0.0397380755
 C          3.7572780260       -3.3743930334        0.7197383200
 H          2.9463910937       -2.7842617992        0.2860256483
 H          3.2951983743       -4.2249362586        1.2287727859
 C          4.4769795857       -2.5356517888        1.7746054618
 H          5.3147471348       -3.1026534105        2.1846921275
 H          3.7685606954       -2.3513105676        2.5868827495
 C          4.9959519075       -1.1684451308        1.2953203802
 H          5.9679066263       -1.2594669318        0.8164492018
 H          5.1204490270       -0.5292475029        2.1742089258
 H          6.2009667426       -2.4454629855       -0.6496298960
 H          5.8392834954       -3.3929657141       -2.0760452368
 H          3.7067684653       -2.2311473255       -2.4005152018
 H          5.1062843882       -1.1806284473       -2.5007448860
 O          2.8791545539       -0.1282189924       -1.6497519818
 C          2.0909940132        0.8956586814       -1.1417511076
 O          1.2753310045        1.3537690234       -1.9620383870
 O          3.3644421703        0.8716255329        2.2383072144
 C          1.4455679914        2.3713024514        0.8116825400
 C         -0.0075831094        2.1351201614        0.4844653539
 C         -0.8058359271        3.0397598318       -0.2013596195
 C         -2.1240918419        2.7303179583       -0.4888966061
 C         -2.6745258864        1.5239207545       -0.0979386180
 C         -1.8836579754        0.6097307030        0.5861563861
 C         -0.5665237896        0.9248672634        0.8780687228
 H          0.0525842010        0.2079046566        1.4051166825
 N         -2.4342064672       -0.6182282923        0.9975531572
 S         -3.2454212231       -1.5427377343       -0.1470197926
 O         -3.1674227401       -2.9005275554        0.3489785294
 O         -2.7375743824       -1.3168520174       -1.4803184700
 C         -4.9303156358       -0.9798497063       -0.0256078843
 C         -5.5364771693       -0.9979405525        1.2154399919
 C         -6.8500694072       -0.5704566648        1.3240593929
 C         -7.5324081955       -0.1383044532        0.1963791473
 C         -6.9108707953       -0.1299484194       -1.0429148504
 C         -5.5962794296       -0.5549513155       -1.1583851538
 H         -5.0687660772       -0.5592865179       -2.0991193835
 H         -7.4423574419        0.2060716924       -1.9187612477
 H         -8.5546447024        0.1942894491        0.2838338893
 H         -7.3367901191       -0.5753156316        2.2859885569
 H         -4.9720918695       -1.3439491596        2.0651344809
 H         -1.7860337135       -1.1956793019        1.5141473898
 H         -3.6979552985        1.2774760364       -0.3291403031
 H         -2.7312477823        3.4388216234       -1.0314514231
 H         -0.3885728423        3.9746957975       -0.5368762615
 H          1.5746811290        2.2219939461        1.8971335786
 C          1.9147522810        3.7871113436        0.5155327488
 C          3.3570848524        4.0758444613        0.2281619110
 C          2.3323173754        4.2303457172       -0.8533508675
 H          2.0700291885        5.2296861109       -1.1689606071
 H          2.3022217331        3.5004238155       -1.6467031136
 H          3.7974999678        4.9651085958        0.6534217032
 H          4.0341535257        3.2355466730        0.1740818380
 H          1.3926861079        4.5188975684        1.1244022494
