  62
        -98.94484770
 C         -1.9128076930       -0.3075907963        0.0626972904
 C         -2.9822922310       -0.5003197204        0.9746068095
 C         -4.1963336284        0.2868982270        0.7270547873
 C         -4.2161724137        1.1571168955       -0.2988572911
 C         -5.4009799090        1.9878735302       -0.6961214096
 C         -6.2666528245        1.2590227372       -1.7335909522
 C         -6.6078904657       -0.1812624712       -1.3512125822
 H         -7.2457899582       -0.5844924947       -2.1407064139
 H         -5.6909641949       -0.7749323723       -1.3443922157
 C         -7.3159026051       -0.3278690969        0.0029640260
 H         -7.7337422622        0.6321131073        0.3084674600
 H         -8.1506580619       -1.0225269058       -0.1119786029
 C         -6.4321776919       -0.8759398160        1.1250667209
 H         -5.9393730273       -1.7916039193        0.7888738271
 H         -7.0776241529       -1.1417687952        1.9664313779
 C         -5.3586190869        0.0816791146        1.6573736951
 H         -5.8157698798        1.0379248327        1.9197954698
 H         -4.9403592860       -0.3599017304        2.5665604162
 H         -7.1873561815        1.8278711676       -1.8754174533
 H         -5.7277221886        1.2426510827       -2.6837722891
 H         -5.9912965554        2.2165989337        0.1890820063
 H         -5.0371773293        2.9209237399       -1.1299065880
 O         -3.1599863379        1.3438580073       -1.1287820143
 C         -1.9871957517        0.6165605652       -0.9795373509
 O         -1.1175975666        0.8874076291       -1.8300727865
 H          1.2328103036        0.3061858906       -1.1123713866
 C          1.3126626470        0.4545218362       -0.0470215331
 C          0.4321663573       -0.1944752320        0.8056681608
 C          0.5369687419        0.0387293557        2.1735322688
 C          1.4985113439        0.8977792799        2.6738353102
 C          2.3716106329        1.5485561873        1.8193938968
 C          2.2663637991        1.3302546471        0.4526474388
 N          3.1563633869        1.9904374541       -0.4243174351
 S          4.7646155039        1.5436328015       -0.2788025745
 O          5.2787750716        2.0448313832        0.9702955357
 O          5.4177158219        2.0180991636       -1.4775811340
 C          4.7227014355       -0.2388591169       -0.2540263336
 C          4.7253210589       -0.9162533188       -1.4569562007
 C          4.6047400477       -2.2962512313       -1.4493137757
 C          4.4693962909       -2.9700480637       -0.2451437411
 C          4.4651709110       -2.2745287597        0.9538660831
 C          4.5924395041       -0.8948001983        0.9535209542
 H          4.5982496442       -0.3188745791        1.8641572941
 H          4.3596233630       -2.8008663835        1.8888196504
 H          4.3665498582       -4.0437386707       -0.2416830294
 H          4.6122747388       -2.8404040840       -2.3802870792
 H          4.8347645965       -0.3542246770       -2.3707995268
 H          2.8710267013        1.9188021233       -1.3911832406
 H          3.1344389324        2.2153054569        2.1880762459
 H          1.5686800363        1.0648672032        3.7380163884
 H         -0.1537694676       -0.4568770958        2.8410434872
 C         -0.6436701880       -1.1144432378        0.2851146587
 H         -0.8933770740       -1.8257432157        1.0835412794
 C         -0.2185876218       -1.8904647488       -0.9447178780
 C          0.8554077217       -2.9274648736       -0.8120046284
 C         -0.5635245417       -3.3441624275       -1.0534339936
 H         -0.8290399422       -3.7381922784       -2.0230258175
 H         -1.1115106648       -3.7909298536       -0.2369056275
 H          1.2728485614       -3.0851823904        0.1707578737
 H          1.5696137480       -3.0353771250       -1.6134751958
 H         -0.2488769117       -1.3069526496       -1.8563145515
 O         -2.9231566396       -1.2978347223        1.9477415900
