  62
        -98.94141858
 C         -1.6108822801       -1.1876106701        0.1577568499
 C         -1.6724524902        0.1545213894        0.6130647311
 C         -2.7663159903        0.9742471498        0.0833954917
 C         -3.6259714802        0.4399897305       -0.8029898888
 C         -4.7757431402        1.1514132610       -1.4632361782
 C         -6.0573933103        1.1857696002       -0.6197735783
 C         -6.0181561004        2.1293503991        0.5828841526
 H         -5.7019333805        3.1204174294        0.2560481135
 H         -7.0412903904        2.2196828687        0.9531584226
 C         -5.1186506204        1.6526557581        1.7318837622
 H         -5.6487795005        1.7652589272        2.6803731123
 H         -4.9053225203        0.5880601583        1.6102912013
 C         -3.7970746905        2.4102161081        1.8603883830
 H         -3.2276209705        1.9677923275        2.6819978426
 H         -3.9962760606        3.4538739879        2.1139394839
 C         -2.9192477504        2.3723344593        0.6023846930
 H         -3.3378101004        3.0208819700       -0.1672452265
 H         -1.9258695105        2.7397200792        0.8724527834
 H         -6.2802453702        0.1715757699       -0.2803066092
 H         -6.8712390902        1.5022910407       -1.2761832080
 H         -4.9867790701        0.6088863819       -2.3872190287
 H         -4.4796397503        2.1695852813       -1.7170517673
 O         -3.5263441800       -0.8450477791       -1.2285035999
 C         -2.5289401900       -1.6959361894       -0.7626024406
 O         -2.5866898199       -2.8400429690       -1.2469863717
 O         -0.8450230703        0.6442780288        1.4283925116
 C         -0.4733446901       -2.0323895205        0.7043956892
 C          0.7312075400       -1.8932009896       -0.1910661106
 C          0.6593226901       -2.1997749484       -1.5475203609
 C          1.7672629801       -2.0425606776       -2.3588473907
 C          2.9562272000       -1.5551584280       -1.8427257002
 C          3.0346494699       -1.2355130592       -0.4931370499
 C          1.9275340499       -1.4198252700        0.3254094299
 H          2.0046999898       -1.1649754909        1.3715173801
 N          4.2248858099       -0.7326121196        0.0611244106
 S          4.1631607697        0.6644422996        0.9869095919
 O          5.5430774497        1.0862328696        1.0909539423
 O          3.4857297497        0.4007568384        2.2289205616
 C          3.2562741797        1.8206043304       -0.0238714672
 C          1.8796829496        1.8863042902        0.0497549728
 C          1.2084910396        2.7357089410       -0.8169836164
 C          1.9143348396        3.5017063919       -1.7306505757
 C          3.2983242996        3.4284800820       -1.7862148357
 C          3.9757222896        2.5757765513       -0.9311658664
 H          5.0505557397        2.4912989714       -0.9359214265
 H          3.8473587296        4.0288984627       -2.4935876751
 H          1.3823680396        4.1597340824       -2.3995971752
 H          0.1316209496        2.7831440008       -0.7672817465
 H          1.3374302097        1.2937314196        0.7701770923
 H          4.9893907999       -0.6746070189       -0.5970392993
 H          3.8169587801       -1.4223859773       -2.4804089700
 H          1.7021926202       -2.2912240967       -3.4073019509
 H         -0.2736033199       -2.5625355981       -1.9524947913
 H         -0.2160779502       -1.5662304214        1.6694390396
 C         -0.8592876799       -3.4763503908        0.9903405379
 C         -0.2624673898       -4.6531698101        0.2838952468
 C          0.1109283401       -4.3698914014        1.7058566871
 H         -0.2581348199       -5.0219177921        2.4830191565
 H          1.0984074700       -3.9740588915        1.8938843275
 H         -0.9125830497       -5.4885324600        0.0732002160
 H          0.4768401302       -4.4743746294       -0.4804535430
 H         -1.9025927300       -3.5702987312        1.2730709577
