  62
        -98.94313082
 C         -2.5870289907       -0.0551350238        0.3713156675
 C         -2.7025628668       -1.0708466109       -0.6136308708
 C         -2.1423549229       -2.3807519518       -0.2749409762
 C         -1.5629625106       -2.5617842675        0.9249661034
 C         -0.8987969938       -3.8221816188        1.4079318162
 C          0.5504259147       -3.9625425081        0.9209513679
 C          0.7057032203       -4.3558060056       -0.5492189993
 H          1.7423182053       -4.6698395474       -0.6869023603
 H          0.0716615160       -5.2169971002       -0.7646031141
 C          0.4007980434       -3.2243749563       -1.5409897284
 H          0.4463272984       -2.2635615529       -1.0221950849
 H          1.1725601729       -3.2048482030       -2.3147169747
 C         -0.9441998502       -3.3473691879       -2.2578812450
 H         -0.9337405433       -4.2258192610       -2.9080316363
 H         -1.0765667375       -2.4623344905       -2.8855201448
 C         -2.1580767385       -3.4493303678       -1.3263965014
 H         -3.0608525026       -3.3089359809       -1.9264845288
 H         -2.1953451142       -4.4348039116       -0.8623719404
 H          1.0302037843       -4.7283282111        1.5355001411
 H          1.0670357396       -3.0150704321        1.0979781607
 H         -1.4791527377       -4.6917421045        1.0973943659
 H         -0.8955100863       -3.7750707128        2.4991080871
 O         -1.5271280333       -1.5870906622        1.8686484783
 C         -1.9914753744       -0.3039415189        1.6084668264
 O         -1.8324658193        0.4782376851        2.5680799920
 O         -3.2525118141       -0.8833137874       -1.7332745158
 C         -3.0117864176        1.3368344168       -0.0669750792
 C         -1.8427504993        1.9753450163       -0.7837139989
 C         -1.9869576681        2.5514697097       -2.0398172865
 C         -0.8858525706        3.0480922597       -2.7156380705
 C          0.3806784324        2.9450808241       -2.1698416823
 C          0.5326121479        2.3782406235       -0.9088737644
 C         -0.5799139743        1.9355224857       -0.2110968959
 H         -0.4418740864        1.5122548738        0.7726311113
 N          1.7977917463        2.2289773062       -0.3207884592
 S          2.0681279388        0.8253850339        0.5896194988
 O          1.3282163517       -0.2828335271        0.0340742289
 O          1.8428816540        1.1329878310        1.9798341458
 C          3.8157875306        0.5904857967        0.3171951506
 C          4.2383474447       -0.3572716983       -0.5950662729
 C          5.5975664751       -0.5120262677       -0.8199657453
 C          6.5051981442        0.2820698486       -0.1355395144
 C          6.0658266551        1.2291136581        0.7780044227
 C          4.7087001812        1.3874822802        1.0091617848
 H          4.3198530180        2.1010163533        1.7169691721
 H          6.7743620606        1.8425166660        1.3107376700
 H          7.5620188676        0.1597708519       -0.3124194375
 H          5.9414200775       -1.2504644639       -1.5260801045
 H          3.4946414985       -0.9549129278       -1.0977932754
 H          2.5590155157        2.4213480894       -0.9574588690
 H          1.2454465935        3.2936975994       -2.7136453456
 H         -1.0111108165        3.4920451787       -3.6915039128
 H         -2.9644755473        2.5836303422       -2.4973725247
 H         -3.8120801094        1.1861782086       -0.8054979081
 C         -3.5338631839        2.2402136380        1.0292559847
 C         -4.4572034875        3.3637491797        0.6666470345
 C         -4.9806470280        2.1737099946        1.4120108165
 H         -5.2393029909        2.2835164678        2.4541191082
 H         -5.6050938530        1.4714927949        0.8791767861
 H         -4.3582254380        4.2990523563        1.1954965723
 H         -4.7337427253        3.4710256002       -0.3711137546
 H         -2.8179000712        2.4111146947        1.8225758123
