  62
        -98.94074500
 C         -1.1482531496       -1.0097806637        0.4308035268
 C         -2.0192405277       -0.7955734830       -0.6632613599
 C         -3.0317096296        0.2572482261       -0.4840626826
 C         -3.0354942364        0.9802999221        0.6504701531
 C         -4.0431139373        2.0356672232        1.0084887797
 C         -5.3586797246        1.3752284313        1.4683892853
 C         -6.5502506651        1.6336766703        0.5461372363
 H         -7.3498023197        0.9534401564        0.8469904144
 H         -6.9072000464        2.6533680958        0.7052309422
 C         -6.2845509339        1.4593466847       -0.9522613174
 H         -7.2583123752        1.4135147559       -1.4445238457
 H         -5.7809494082        2.3456856707       -1.3412369856
 C         -5.4724771391        0.2201416013       -1.3503669387
 H         -5.5627541262       -0.5585724213       -0.5928514038
 H         -5.8969323793       -0.1816139699       -2.2726146705
 C         -3.9815422697        0.4916627408       -1.6260849958
 H         -3.8573494981        1.5123439140       -1.9995499475
 H         -3.6412299647       -0.1875627779       -2.4136705133
 H         -5.1890528395        0.2998685736        1.5533627559
 H         -5.6149956009        1.7329566150        2.4667317674
 H         -4.2159811283        2.6826944984        0.1511789726
 H         -3.6138788389        2.6338295353        1.8128588855
 O         -2.1471271853        0.7793571559        1.6582904864
 C         -1.1778528476       -0.2053492566        1.5688208605
 O         -0.4106755200       -0.2651764115        2.5523465937
 O         -1.9562590541       -1.4485473431       -1.7381423576
 C         -0.0690543967       -2.0728952337        0.3470593547
 C          0.9187773484       -1.7353713368       -0.7448825147
 C          1.5139035229       -2.6889043201       -1.5615108169
 C          2.4382740033       -2.3084328804       -2.5193669598
 C          2.8085915895       -0.9838611143       -2.6674068988
 C          2.2223343973       -0.0234588452       -1.8509903039
 C          1.2830879191       -0.4063652404       -0.9079492184
 H          0.8137082181        0.3527017590       -0.3016803667
 N          2.5647906680        1.3332870452       -1.9547273500
 S          2.6390370768        2.2697966427       -0.5706573655
 O          1.3128663103        2.5888278154       -0.1031547840
 O          3.4585385526        3.4001426243       -0.9544985619
 C          3.5226312526        1.2641080852        0.6089978383
 C          2.8730527681        0.6663263478        1.6690791015
 C          3.5998302288       -0.1515911367        2.5213530031
 C          4.9526795126       -0.3562426852        2.3032876101
 C          5.5933923851        0.2596565758        1.2383354111
 C          4.8730684783        1.0743344054        0.3815569568
 H          5.3358056372        1.5808682253       -0.4498140370
 H          6.6474094108        0.1049552475        1.0734770201
 H          5.5096314074       -0.9963815608        2.9691182342
 H          3.0917588967       -0.6245363317        3.3468654569
 H          1.8182415820        0.8325329912        1.8254452918
 H          3.3216113477        1.5370424284       -2.5906061241
 H          3.5342876006       -0.6919532798       -3.4106660637
 H          2.8852633531       -3.0573140877       -3.1551929722
 H          1.2485976525       -3.7277276534       -1.4531615961
 H          0.4727477647       -2.0277208561        1.3043064385
 C         -0.6841646758       -3.4493159652        0.2004103556
 C         -0.0090590371       -4.6476037060        0.7950235839
 C         -1.2644661019       -4.1117489949        1.4127739121
 H         -2.1784148613       -4.6762287589        1.3048445603
 H         -1.1889358398       -3.5804749691        2.3508221191
 H         -0.0632298341       -5.5859361038        0.2638869829
 H          0.9195969804       -4.4895441386        1.3221991767
 H         -1.2144099606       -3.5691844240       -0.7369407190
