  62
        -98.93754595
 C          1.8245364062        0.9074612234        0.2401307580
 C          2.3241184227       -0.4104534440        0.1215625481
 C          3.7672743501       -0.5827466855        0.3674535234
 C          4.5150262644        0.4845645051        0.6959235375
 C          5.9868675965        0.5345209818        1.0219642121
 C          6.9363355340       -0.2843321761        0.1363768640
 C          6.5074292889       -0.4125150811       -1.3325978517
 H          5.6909928193        0.2791497505       -1.5470497678
 H          7.3466855996       -0.1343247978       -1.9728111326
 C          6.0825905800       -1.8342653198       -1.7081816473
 H          6.1492543397       -1.9459847695       -2.7931453518
 H          6.7882478762       -2.5395673204       -1.2637170589
 C          4.6623514301       -2.2248157566       -1.3003067006
 H          4.5305828728       -3.2881873105       -1.5151364506
 H          3.9374559423       -1.6835635665       -1.9145731312
 C          4.3026444284       -1.9720604513        0.1729177798
 H          3.4859251541       -2.6488009920        0.4393678941
 H          5.1483950943       -2.1743567672        0.8256586842
 H          7.0584988988       -1.2812956394        0.5574155566
 H          7.9127154502        0.2002615061        0.1890953607
 H          6.1152765316        0.2264977600        2.0636573345
 H          6.2539563312        1.5924031650        0.9642487371
 O          3.9856815690        1.7354968215        0.8145196126
 C          2.6428011780        1.9807227835        0.5878722332
 O          2.3044181551        3.1729940698        0.7314131746
 O          1.6043338842       -1.4015703596       -0.1672698086
 C          0.3548887456        1.1904311770       -0.0191337182
 C         -0.4978795856        0.3511143486        0.8993049549
 C         -0.2522206947        0.4139629798        2.2695723465
 C         -0.9860439587       -0.3486795883        3.1557017995
 C         -1.9904377895       -1.1828734874        2.6960251577
 C         -2.2493103840       -1.2471482237        1.3326847078
 C         -1.5124972383       -0.4745997056        0.4428212778
 H         -1.7226585503       -0.5594590384       -0.6099933310
 N         -3.2554199053       -2.0894910745        0.8445779715
 S         -4.1357716845       -1.7037008819       -0.5136533444
 O         -5.3542626625       -2.4741112671       -0.3780802554
 O         -3.3716239716       -1.9511784687       -1.7103438989
 C         -4.5078181889        0.0374670112       -0.3824425824
 C         -4.9416598746        0.5464719850        0.8257085346
 C         -5.2439460430        1.8955767743        0.9142804930
 C         -5.1149497342        2.7088835859       -0.2012183904
 C         -4.6875038190        2.1814541048       -1.4093952964
 C         -4.3804835207        0.8333056453       -1.5019171749
 H         -4.0389832746        0.3821025611       -2.4194068872
 H         -4.5888944698        2.8133681431       -2.2775538269
 H         -5.3494467937        3.7592109579       -0.1288248906
 H         -5.5780092301        2.3084890883        1.8524315990
 H         -5.0392452567       -0.1061093271        1.6776087591
 H         -3.8048085851       -2.5667455810        1.5427370697
 H         -2.5595639660       -1.7885347003        3.3846521121
 H         -0.7774843110       -0.2943472492        4.2135435975
 H          0.5355412616        1.0637942533        2.6264250728
 H          0.2000812794        2.2475119044        0.2419132190
 C          0.0457756753        1.0036686357       -1.4892375591
 C         -1.0566986269        1.7865224986       -2.1333883533
 C          0.3730156013        2.1156363449       -2.4386779058
 H          0.7656581364        1.8645831908       -3.4127366329
 H          0.7946300187        3.0167010133       -2.0170678209
 H         -1.6441580785        1.3052272984       -2.9002972231
 H         -1.6149271424        2.4690816010       -1.5108013456
 H          0.2190463596       -0.0112859627       -1.8296370844
