  62
        -98.94417581
 C         -2.1025241190       -1.2779315631        0.3666387144
 C         -2.4181077219       -0.4659138741       -0.7505987866
 C         -3.1186189479        0.7895973504       -0.4465821034
 C         -3.3893139583        1.1166800870        0.8296480085
 C         -4.1321014912        2.3400805964        1.2946578618
 C         -3.2646213714        3.6011472963        1.4062908473
 C         -2.8543123185        4.2284462642        0.0735231890
 H         -3.7396962555        4.3723480037       -0.5463716399
 H         -2.4502603354        5.2178710509        0.2970435878
 C         -1.8000116450        3.4285714064       -0.7042551443
 H         -1.3119310448        2.7176566996       -0.0336579090
 H         -1.0290944997        4.1088670530       -1.0703194984
 C         -2.3394757133        2.6688794817       -1.9155520002
 H         -2.6992881039        3.3782934548       -2.6639898911
 H         -1.5170788058        2.0992229077       -2.3553910648
 C         -3.4738593096        1.6887512529       -1.5923946963
 H         -4.3924121540        2.2339354579       -1.3753599080
 H         -3.6400650389        1.0571861170       -2.4685117988
 H         -2.3717316318        3.3603948537        1.9879245069
 H         -3.8382626269        4.3403535204        1.9702903605
 H         -4.9711398745        2.5332328634        0.6253315294
 H         -4.5264576691        2.1046430195        2.2856711822
 O         -3.0235177530        0.3311373729        1.8786116791
 C         -2.3675197137       -0.8708318794        1.6749277969
 O         -2.0751646197       -1.4786276127        2.7265391089
 H          0.5213125926       -1.5988096486        1.6580980470
 C          0.8878402985       -1.8351228914        0.6667325404
 C          0.0103980159       -2.3934064053       -0.2559078843
 C          0.4801780531       -2.6853291944       -1.5288136463
 C          1.8012444825       -2.4328520738       -1.8585853574
 C          2.6770825166       -1.8959043518       -0.9331027413
 C          2.2138849787       -1.5906908579        0.3414473835
 N          3.0901786806       -1.0670900624        1.3055967625
 S          4.2309093113        0.0823746415        0.8993731814
 O          5.2686345666       -0.5274223407        0.1065671669
 O          4.6439547891        0.6528742138        2.1611702118
 C          3.3662899637        1.3046163063       -0.0679704218
 C          2.5292136832        2.1795362360        0.5960967472
 C          1.8329182724        3.1277112268       -0.1345739054
 C          1.9751900919        3.1761330417       -1.5131160504
 C          2.8177207061        2.2901627062       -2.1654297994
 C          3.5239272506        1.3451151409       -1.4381753027
 H          4.2000575119        0.6499415542       -1.9075093708
 H          2.9279758181        2.3330597355       -3.2369411623
 H          1.4290741506        3.9120973708       -2.0819049138
 H          1.1830727425        3.8229592841        0.3722536116
 H          2.4505893832        2.1166495124        1.6699185492
 H          2.6492595197       -0.8502517928        2.1866971815
 H          3.7136317695       -1.7232547917       -1.1711699039
 H          2.1567479784       -2.6660826221       -2.8506587533
 H         -0.1881644498       -3.1020710958       -2.2633485297
 C         -1.4147610434       -2.6223708206        0.1873307191
 H         -1.3797040324       -3.0748129096        1.1884873814
 C         -2.2058576264       -3.5335500773       -0.7261456678
 C         -1.9474498260       -5.0089273643       -0.6960931441
 C         -3.2206572970       -4.4590400325       -0.1284004390
 H         -4.1419938315       -4.6295912849       -0.6648629157
 H         -3.3388557210       -4.4454109937        0.9456561017
 H         -1.1991076568       -5.3702232108       -0.0067711155
 H         -1.9951098101       -5.5609526586       -1.6222515357
 H         -2.4510673901       -3.0774953742       -1.6769339734
 O         -2.1491160747       -0.7689014181       -1.9406278884
