  62
        -98.93598104
 C         -2.3835121898       -1.2773992907       -0.0013030207
 C         -3.2940283201       -0.6846388604        0.9139197288
 C         -4.2049902302        0.3347194690        0.3759637580
 C         -4.1489618101        0.6316206683       -0.9346660421
 C         -4.9432552902        1.7050334677       -1.6226229429
 C         -4.3266078906        3.0862686780       -1.3216351636
 C         -5.2220087210        4.0107238783       -0.4964358743
 H         -4.6081366913        4.8521851986       -0.1682700946
 H         -6.0095375310        4.4086521377       -1.1398393046
 C         -5.8926991711        3.3762684488        0.7258870960
 H         -6.2670717814        4.1957077191        1.3431619754
 H         -6.7649230309        2.8023850084        0.4093633962
 C         -5.0009180010        2.4763858395        1.5912024867
 H         -3.9509598411        2.7443884297        1.4712329967
 H         -5.2558505412        2.6522754901        2.6382100965
 C         -5.1737610906        0.9672104794        1.3362643875
 H         -6.1972529705        0.7670665089        1.0074831874
 H         -5.0209451306        0.4338576499        2.2790551678
 H         -3.3805476607        2.9317777586       -0.7983382333
 H         -4.0874167406        3.5899893276       -2.2594723938
 H         -4.9106608000        1.4990515171       -2.6926820128
 H         -5.9785471003        1.6667272177       -1.2913511231
 O         -3.2827095298        0.0275956480       -1.7859295616
 C         -2.3740156396       -0.9264533315       -1.3506064009
 O         -1.6422761693       -1.3589721618       -2.2649926105
 O         -3.3426174502       -1.0011999497        2.1324822190
 C         -1.4251538896       -2.3083152401        0.5723054201
 C         -0.0681731798       -1.7003723697        0.8403450200
 C          0.4465047799       -1.6472047988        2.1304307400
 C          1.6879672097       -1.0846980083        2.3697351699
 C          2.4358321098       -0.5559002188        1.3329660098
 C          1.9313193600       -0.6049106896        0.0397279697
 C          0.6921439402       -1.1839745901       -0.1990271702
 H          0.3025409804       -1.2165231707       -1.2057834602
 N          2.6526779301       -0.0355263300       -1.0194221205
 S          4.3116173502       -0.2286013197       -1.1162446601
 O          4.6379077804        0.0026472596       -2.5061956401
 O          4.7373267404       -1.4920663093       -0.5599261493
 C          4.9504019797        1.1157947110       -0.1379782507
 C          5.9016711595        0.8715578018        0.8330430596
 C          6.3899982191        1.9353531624        1.5758770491
 C          5.9220169189        3.2178521221        1.3348732983
 C          4.9688712890        3.4469964413        0.3536454779
 C          4.4774991894        2.3881379208       -0.3929428015
 H          3.7369442995        2.5247572601       -1.1635188218
 H          4.6062303888        4.4454915111        0.1691824273
 H          6.3015105685        4.0440645425        1.9151052279
 H          7.1310105290        1.7594183530        2.3389598793
 H          6.2314604898       -0.1430593080        0.9904680102
 H          2.2066108103       -0.1351695307       -1.9192586105
 H          3.4010497997       -0.1128877184        1.5152513597
 H          2.0760278395       -1.0503715477        3.3762575400
 H         -0.1395557001       -2.0389424785        2.9488099601
 H         -1.8591808397       -2.5921568597        1.5403793801
 C         -1.2989375692       -3.5578864206       -0.2769571392
 C         -0.8452290390       -4.8312720801        0.3688140816
 C         -2.2688118989       -4.6815617507       -0.0753814887
 H         -2.6032470986       -5.2338861613       -0.9406553185
 H         -3.0288191391       -4.5552133305        0.6819252310
 H         -0.1972520787       -5.4890859503       -0.1899388679
 H         -0.6404270592       -4.8092985395        1.4284326416
 H         -0.9709833790       -3.3619153811       -1.2895602793
