  62
        -98.93573142
 C         -2.4947789401       -0.9978037402        0.5823473399
 C         -2.6712103497        0.2892400797        1.1529515502
 C         -3.9889338596        0.9080464701        0.9755647505
 C         -4.9553937898        0.2366322205        0.3239088204
 C         -6.3629286798        0.7128729109        0.0864313607
 C         -6.5158410897        1.6260252612       -1.1375131590
 C         -5.9446215593        3.0348303110       -0.9728732988
 H         -6.3105577193        3.6292197513       -1.8123569386
 H         -6.3400485791        3.4818434309       -0.0603258186
 C         -4.4107841293        3.0980818407       -0.9560497489
 H         -4.0016901596        2.1693366106       -1.3607726792
 H         -4.0717041292        3.9066244807       -1.6075807388
 C         -3.8004768291        3.3443398502        0.4239969110
 H         -4.0938232388        4.3330742702        0.7840426213
 H         -2.7115738191        3.3314025700        0.3249514509
 C         -4.1904765892        2.3040701600        1.4822686908
 H         -5.2253476392        2.4509816302        1.7912813310
 H         -3.5416712491        2.4387621997        2.3513785808
 H         -7.5843587397        1.7126504115       -1.3474228789
 H         -6.0462008999        1.1406468613       -1.9959871892
 H         -6.9694806300       -0.1811182190       -0.0731773694
 H         -6.7293241195        1.2281439807        0.9747481409
 O         -4.7570313702       -1.0032907894       -0.1912222299
 C         -3.5243780303       -1.6439080598       -0.1047847102
 O         -3.5050203607       -2.7529612496       -0.6670462004
 O         -1.7663016895        0.8891396894        1.7958347502
 C         -1.1296049202       -1.6363531805        0.7584563496
 C         -0.2057975403       -1.3066351005       -0.3873779505
 C         -0.6310338305       -1.3884893601       -1.7093475004
 C          0.2378794295       -1.0891536000       -2.7427416105
 C          1.5421430296       -0.7104555904       -2.4801036405
 C          1.9823545698       -0.6374441208       -1.1627928106
 C          1.1038575098       -0.9278497408       -0.1277245505
 H          1.4473897800       -0.8400777712        0.8919058895
 N          3.3210778199       -0.3173931512       -0.8847347906
 S          3.7364479002        0.4954616984        0.5336115895
 O          3.6253770202       -0.4186018918        1.6420218393
 O          2.9972235605        1.7333931085        0.6395705499
 C          5.4565947003        0.8227244781        0.1990674194
 C          5.8572335805        2.0953133181       -0.1600845004
 C          7.1963900406        2.3230799078       -0.4372457505
 C          8.1058520303        1.2797402376       -0.3536266008
 C          7.6885465801        0.0074611876        0.0091829589
 C          6.3519708500       -0.2266563122        0.2893830890
 H          5.9836883999       -1.1953284722        0.5842123488
 H          8.3990526899       -0.8005759726        0.0757843987
 H          9.1470974503        1.4597048874       -0.5697024609
 H          7.5242785408        3.3115265678       -0.7161810803
 H          5.1153853407        2.8764538082       -0.2057125801
 H          3.8007292799        0.0776342889       -1.6824189906
 H          2.2174484496       -0.4779114904       -3.2893116606
 H         -0.1053824506       -1.1507755997       -3.7645683404
 H         -1.6448093506       -1.6962277498       -1.9169618404
 H         -0.7092166600       -1.1571198208        1.6583940296
 C         -1.1972240806       -3.1329016406        1.0339764392
 C         -0.7609734709       -4.1718573804        0.0496857089
 C          0.0626112393       -3.9115696209        1.2728664089
 H          0.0702413692       -4.6492609611        2.0609845987
 H          1.0003768494       -3.3904928211        1.1472461089
 H         -1.3408566011       -5.0800623903       -0.0066422012
 H         -0.3805662109       -3.8400627803       -0.9033605710
 H         -2.0507572605       -3.3881774205        1.6541296393
