  62
        -98.94115583
 C         -2.5653900999       -1.2203634906        0.4198817601
 C         -2.4763923100       -0.4413605104       -0.7609471297
 C         -3.3301260702        0.7577673095       -0.8034647595
 C         -4.1052870302        1.0603224592        0.2527453605
 C         -4.9814089904        2.2741521090        0.3588339208
 C         -4.2303925306        3.4471854890        1.0040494710
 C         -2.8557646506        3.7142472993        0.3899497011
 H         -2.4320129608        4.5810189293        0.9021990713
 H         -2.1966157705        2.8677243594        0.5990085410
 C         -2.8756908107        3.9744154497       -1.1227700788
 H         -3.8853959007        4.2381988396       -1.4399047488
 H         -2.2326561208        4.8302982798       -1.3385545886
 C         -2.3652223705        2.8103869399       -1.9745532591
 H         -2.2187515205        3.1756972902       -2.9946677990
 H         -1.3885210204        2.4839757500       -1.6052827091
 C         -3.2877208503        1.5873243898       -2.0557534293
 H         -4.2925961503        1.9040699697       -2.3429096893
 H         -2.8954877302        0.9308490900       -2.8380427295
 H         -4.8480340008        4.3427726489        0.9170892212
 H         -4.0939900406        3.2298363488        2.0659728210
 H         -5.3280547005        2.5530942892       -0.6341966292
 H         -5.8436306204        2.0222989788        0.9785738507
 O         -4.1369822202        0.3090948889        1.3832276404
 C         -3.3589753200       -0.8315088310        1.5017519502
 O         -3.4541190699       -1.4007311512        2.6078122200
 O         -1.7337558299       -0.7209007600       -1.7363274598
 C         -1.7336786697       -2.4781542805        0.6112735798
 C         -0.3073156898       -2.2127587002        0.1954804899
 C          0.3509953304       -2.9088376399       -0.8086820602
 C          1.6568326603       -2.5900651097       -1.1387637301
 C          2.3337724202       -1.5827972497       -0.4763458799
 C          1.6827119800       -0.8760266900        0.5264230802
 C          0.3766514301       -1.2000674503        0.8575750002
 H         -0.1344592500       -0.6445261005        1.6360470303
 N          2.3641239699        0.1436664399        1.2154489905
 S          3.1599668697        1.3193264203        0.3171573807
 O          3.2215814995        2.4742733201        1.1875168610
 O          2.5424378497        1.5193467504       -0.9728227392
 C          4.8009351598        0.6569514105        0.1192665106
 C          5.3322635099        0.4972127209       -1.1454115594
 C          6.6136648899       -0.0162238489       -1.2737817995
 C          7.3371991600       -0.3575204290       -0.1414128395
 C          6.7901258199       -0.1879839894        1.1218901905
 C          5.5102187298        0.3254289104        1.2570956906
 H          5.0501677298        0.4767926601        2.2192752806
 H          7.3557787499       -0.4542683795        2.0001980205
 H          8.3335073900       -0.7576480189       -0.2441897596
 H          7.0404229400       -0.1483173586       -2.2550445695
 H          4.7300283798        0.7716052810       -1.9970822793
 H          1.8152003898        0.5731385497        1.9463102306
 H          3.3487155401       -1.3295088295       -0.7354860798
 H          2.1544935004       -3.1330825394       -1.9277447402
 H         -0.1674352395       -3.6804558299       -1.3533111904
 H         -1.7355539197       -2.6535034308        1.7001660198
 C         -2.3279422695       -3.7258204505       -0.0244030504
 C         -3.8106012995       -3.8757226507       -0.1855396605
 C         -2.9372360795       -3.7233856203       -1.3927615704
 H         -2.7821068094       -4.5872659501       -2.0225905506
 H         -2.9561074096       -2.7891494602       -1.9306447803
 H         -4.2529677494       -4.8401091308        0.0142037593
 H         -4.4324567496       -3.0417590008        0.1067043897
 H         -1.7860481694       -4.6206890405        0.2658815994
