  62
        -98.94967531
 C         -1.4991198083       -1.0685589175        0.0377174938
 C         -2.5156353274       -0.6394549786        0.9212471477
 C         -3.0418894804        0.7108286694        0.6872366743
 C         -2.5164660796        1.4596846916       -0.3000171496
 C         -2.9829816846        2.8373542612       -0.6701682800
 C         -4.0767170778        2.7873618819       -1.7463443865
 C         -5.2065413504        1.8067793947       -1.4319353562
 H         -5.9336390976        1.8772137743       -2.2436702207
 H         -4.8079968591        0.7898419870       -1.4427713116
 C         -5.9106939901        2.0593271108       -0.0915982675
 H         -5.6981638264        3.0717533943        0.2536534814
 H         -6.9896967587        1.9877034094       -0.2434441518
 C         -5.5496875773        1.0630457503        1.0117065401
 H         -6.2556150196        1.1972402196        1.8356265244
 H         -5.6717471394        0.0430887470        0.6386726684
 C         -4.1371218014        1.1953525651        1.5954957864
 H         -4.0852770119        0.5648752104        2.4883809429
 H         -3.9567625822        2.2293750996        1.8979223013
 H         -4.4865319356        3.7916999737       -1.8678574909
 H         -3.6176216929        2.4902141235       -2.6919509559
 H         -2.1264508530        3.3947702916       -1.0537589849
 H         -3.3557020897        3.3388762590        0.2210481773
 O         -1.5241178710        1.0230098219       -1.1144211940
 C         -0.9857529360       -0.2429304354       -0.9616057617
 O         -0.0756751352       -0.5171854070       -1.7683974447
 O         -2.9580242824       -1.3520564134        1.8646182010
 C         -0.8933229759       -2.4478048334        0.2177265313
 C          0.6008119143       -2.3462566953        0.4026442906
 C          1.4977219137       -3.2561327926       -0.1442628992
 C          2.8602254865       -3.1032237087        0.0469697082
 C          3.3583096542       -2.0311993955        0.7645542376
 C          2.4685995935       -1.1214178410        1.3229430373
 C          1.1047630448       -1.2999429717        1.1647282320
 H          0.4302052810       -0.5819160260        1.6084632680
 N          2.9186292545        0.0102285028        2.0387377019
 S          2.6098252443        1.4956652821        1.3203035254
 O          3.2419108441        2.4699335935        2.1851037329
 O          1.1949344019        1.6550546897        1.1069627844
 C          3.4996798907        1.4139490701       -0.2240189158
 C          2.9390834391        0.7559133744       -1.3002366416
 C          3.6876741526        0.6254063136       -2.4608948117
 C          4.9703696619        1.1464855315       -2.5252436945
 C          5.5172633887        1.8056411272       -1.4341761360
 C          4.7788747406        1.9360750552       -0.2697624284
 H          5.1595007286        2.4417623220        0.6031403669
 H          6.5139061607        2.2134658735       -1.4863134038
 H          5.5454022509        1.0388818317       -3.4314235787
 H          3.2542480122        0.1120763078       -3.3042423900
 H          1.9360257822        0.3622176995       -1.2352220934
 H          3.8991582980       -0.0327696220        2.2839375979
 H          4.4218321670       -1.8949458493        0.8911584730
 H          3.5435609485       -3.8179942153       -0.3852093593
 H          1.1286279242       -4.0842262115       -0.7270419600
 H         -1.3319518338       -2.8428648784        1.1468581367
 C         -1.2930889236       -3.3507345647       -0.9322304986
 C         -1.4894047895       -4.8207454653       -0.7144686266
 C         -2.6738316046       -3.9327831637       -0.9453445272
 H         -3.1972943588       -3.9998744768       -1.8872706637
 H         -3.3139104742       -3.7016643223       -0.1062253881
 H         -1.2019131297       -5.5013452528       -1.5016656833
 H         -1.3334027501       -5.2045115246        0.2823793095
 H         -0.8797055441       -3.0214305317       -1.8791932569
