  62
        -98.93745014
 C         -0.9063712587       -1.7622475601       -0.4235315287
 C         -2.0921612357       -1.7631008651        0.3574638877
 C         -3.1335309452       -0.8038014184       -0.0282194266
 C         -2.9362950350       -0.0092557152       -1.0945859808
 C         -3.8992244836        1.0087089177       -1.6460523893
 C         -4.2036212752        2.2083543554       -0.7271382488
 C         -5.4672255308        2.0436078283        0.1263206563
 H         -6.0018423788        2.9953136697        0.1512421850
 H         -6.1300131017        1.3263222123       -0.3592133077
 C         -5.2362415060        1.6225883641        1.5810506561
 H         -4.9103424051        2.4916348436        2.1568446945
 H         -6.1955357586        1.2990927610        1.9908067248
 C         -4.2052100965        0.5151500477        1.8028053006
 H         -4.2888856730        0.1751107242        2.8368864445
 H         -3.1966500044        0.9211640065        1.6932965790
 C         -4.3420628726       -0.6924642063        0.8549315143
 H         -4.3907599237       -1.6164694879        1.4344615348
 H         -5.2490057937       -0.6135522920        0.2573522694
 H         -4.3381565682        3.0779736279       -1.3722580402
 H         -3.3415148265        2.4031949594       -0.0902929807
 H         -4.8322355934        0.5045202967       -1.9072831169
 H         -3.4484827842        1.3688345698       -2.5733058010
 O         -1.8035072222       -0.0676762989       -1.8439357192
 C         -0.7548650999       -0.9206576877       -1.5241548249
 O          0.2140609364       -0.8223396183       -2.3020130151
 O         -2.2732407497       -2.5396585316        1.3326656855
 C          0.1989242621       -2.7032587436        0.0257251394
 C          1.1563329422       -1.9595025509        0.9284920258
 C          1.1191669612       -2.1824198502        2.3009850939
 C          1.9801322904       -1.5105217107        3.1489639649
 C          2.8949798874       -0.6070879381        2.6418119030
 C          2.9389510909       -0.3716713750        1.2708738630
 C          2.0662871939       -1.0396806690        0.4219464133
 H          2.1024090931       -0.8392725812       -0.6373057590
 N          3.8887906656        0.5188596285        0.7528786910
 S          3.5940954914        1.4980904021       -0.5644989420
 O          3.5612175936        0.7204459608       -1.7748610274
 O          4.6402235111        2.4973366715       -0.4838113021
 C          2.0245766063        2.2819459534       -0.2477169031
 C          1.9400388688        3.1338293707        0.8373643590
 C          0.7385065646        3.7696932048        1.0999655428
 C         -0.3531766258        3.5487678220        0.2731165781
 C         -0.2498640090        2.6959094175       -0.8138049785
 C          0.9494454001        2.0517076836       -1.0787765581
 H          1.0553414358        1.3668629604       -1.9058690538
 H         -1.0945797622        2.5184154911       -1.4604044941
 H         -1.2878437648        4.0495866844        0.4732565052
 H          0.6553879457        4.4364019444        1.9431425596
 H          2.8149634761        3.2990488545        1.4447893797
 H          4.4471613829        0.9931249388        1.4469701819
 H          3.5770564015       -0.0882932181        3.2978532436
 H          1.9399124856       -1.6926503791        4.2119979060
 H          0.3966824667       -2.8799314140        2.6986044943
 H         -0.3073387197       -3.4617462900        0.6389899060
 C          0.9200663389       -3.4128600115       -1.1003583736
 C          1.6367647404       -4.6942810031       -0.8001956233
 C          0.3765776658       -4.7120565222       -1.6111391739
 H          0.4432992829       -4.9162101106       -2.6692380318
 H         -0.5216560275       -5.0952278691       -1.1489029217
 H          2.5736529561       -4.8879690530       -1.2996177302
 H          1.5921284092       -5.0674087218        0.2119429116
 H          1.3668829707       -2.7464885760       -1.8262099576
