  62
        -98.93322586
 C          1.9691780612        0.5986436936        0.1301980981
 C          2.6431318336       -0.5434048490        0.6330084867
 C          4.0157544080       -0.7643342287        0.1576707532
 C          4.5431850025        0.0970064429       -0.7309245576
 C          5.9509629173        0.0596088317       -1.2541129351
 C          6.9219318941        0.6173190660       -0.1938584215
 C          7.9090541258       -0.4101590845        0.3603917134
 H          8.6892865743       -0.5896077435       -0.3823314023
 H          8.3852561423        0.0336643615        1.2373213878
 C          7.3130314479       -1.7663735955        0.7497692991
 H          7.1686517423       -2.3745047389       -0.1445224546
 H          8.0614074784       -2.2798811200        1.3572188740
 C          5.9928383044       -1.7202854498        1.5299617627
 H          5.8869522369       -0.7686771386        2.0513824623
 H          6.0227528833       -2.4995968502        2.2942947785
 C          4.7357629666       -1.9774805746        0.6779995742
 H          4.9888059502       -2.6379232671       -0.1562257801
 H          3.9963201322       -2.4975111487        1.2943401773
 H          7.4928639885        1.4427522919       -0.6216965472
 H          6.3318000775        1.0346889253        0.6247232102
 H          6.2175711814       -0.9611790802       -1.5190685323
 H          5.9792025299        0.6729506408       -2.1549472248
 O          3.8618878870        1.1685768124       -1.2071308382
 C          2.5615365059        1.4511646627       -0.8020430607
 O          2.0807360807        2.4630136237       -1.3416951909
 H         -1.3478668713       -0.9448437117        1.3528505951
 C         -1.3730256518       -0.7317435140        0.2927282540
 C         -0.4479853339        0.1491225019       -0.2477237895
 C         -0.4825134799        0.3967749835       -1.6166214194
 C         -1.4207536349       -0.2266225365       -2.4191129015
 C         -2.3422680491       -1.1054927737       -1.8760875430
 C         -2.3152568700       -1.3594506080       -0.5118925589
 N         -3.2717515047       -2.2335035879        0.0460550956
 S         -4.8705491895       -1.7506901323       -0.1207263931
 O         -5.6063545164       -2.4954197533        0.8751526020
 O         -5.2806684087       -1.9341069175       -1.4889706053
 C         -4.8339565045       -0.0156331102        0.2881918754
 C         -4.8522442879        0.3441722618        1.6213373886
 C         -4.7224766114        1.6821212688        1.9565205473
 C         -4.5622461622        2.6309634779        0.9580121710
 C         -4.5466491479        2.2534221349       -0.3754934444
 C         -4.6832523061        0.9175907245       -0.7177811731
 H         -4.6794730899        0.5850778055       -1.7426250223
 H         -4.4214087548        2.9940094891       -1.1487807979
 H         -4.4451497493        3.6701009659        1.2205928001
 H         -4.7369336473        1.9799022840        2.9927317311
 H         -4.9797194551       -0.4241481135        2.3673198790
 H         -3.0838643829       -2.4640341687        1.0117227829
 H         -3.0857452221       -1.5930998250       -2.4858742922
 H         -1.4351538292       -0.0263447933       -3.4798504675
 H          0.2313652074        1.0868847859       -2.0404416850
 C          0.5589801543        0.8288970145        0.6435101863
 H          0.5341878323        0.3144285389        1.6171482274
 C          0.2313194469        2.2946615265        0.8956940098
 C         -0.8185928846        3.0525748387        0.1447727912
 C         -1.0592785077        2.6586223901        1.5687658285
 H         -1.0487048464        3.4225781342        2.3308248783
 H         -1.7645842491        1.8609118254        1.7491314982
 H         -0.6146346544        4.0871725042       -0.0839127513
 H         -1.3721566656        2.5374778766       -0.6241208453
 H          1.1093119247        2.8601858349        1.1892624136
 O          2.1147874830       -1.3409794770        1.4550697707
