  62
        -98.93994518
 C          2.7706876285        0.0851606046        0.4100010080
 C          2.8022819646        1.0447360152       -0.6361664872
 C          2.2513274033        2.3667677887       -0.3319788883
 C          1.7734635612        2.6156884893        0.9002457756
 C          1.1191559719        3.8911311273        1.3558083852
 C         -0.3711507440        3.9632505034        0.9925026113
 C         -0.6663782577        4.2484396123       -0.4812134793
 H         -1.7193020775        4.5299834605       -0.5462109986
 H         -0.0777923971        5.1051569595       -0.8125089940
 C         -0.4187045182        3.0542106083       -1.4137593079
 H         -0.3889131028        2.1355219350       -0.8225468437
 H         -1.2557358640        2.9577552882       -2.1100722918
 C          0.8523483902        3.1554373162       -2.2578472995
 H          0.9563929211        2.2290702446       -2.8288855046
 H          0.7555905047        3.9816602931       -2.9665933993
 C          2.1409975102        3.3578697944       -1.4511279122
 H          2.9906916688        3.1974932199       -2.1197596539
 H          2.1874989570        4.3748719171       -1.0621800342
 H         -0.8426597808        3.0188007283        1.2773412706
 H         -0.8170009317        4.7588823424        1.5944929279
 H          1.2130247915        3.9197777415        2.4435560561
 H          1.6445496672        4.7500813147        0.9367495694
 O          1.8437682295        1.7043100093        1.9030843566
 C          2.2841072012        0.4022518245        1.6788589243
 O          2.2127443147       -0.3197396504        2.6915863336
 O          3.2626950403        0.7923990355       -1.7828812343
 C          3.1264341013       -1.3324133137       -0.0072856975
 C          1.9816253538       -1.8739222180       -0.8328978116
 C          2.1940389488       -2.6525342742       -1.9632176333
 C          1.1205832612       -3.1049530340       -2.7118447824
 C         -0.1755150872       -2.7689235607       -2.3667608027
 C         -0.3975244196       -1.9701165321       -1.2483475748
 C          0.6776052858       -1.5596392799       -0.4777042376
 H          0.4960719453       -0.9648468908        0.4044732189
 N         -1.6917232002       -1.5315041540       -0.9302294455
 S         -2.0512367845       -0.8342924149        0.5581925844
 O         -1.3621068576        0.4245687942        0.6730846722
 O         -1.8475867200       -1.7945229696        1.6216549701
 C         -3.7926337298       -0.5378948336        0.3258773457
 C         -4.1792906341        0.6072580231       -0.3441361376
 C         -5.5293529410        0.8356698455       -0.5570143567
 C         -6.4650973097       -0.0801842912       -0.0990775202
 C         -6.0623426127       -1.2233949494        0.5747018936
 C         -4.7132142823       -1.4578371829        0.7903583972
 H         -4.3538232024       -2.3262583543        1.3187755515
 H         -6.7923246169       -1.9309848436        0.9333969632
 H         -7.5153288051        0.1000517388       -0.2656024370
 H         -5.8458459290        1.7254215488       -1.0769249069
 H         -3.4148573461        1.2929516295       -0.6718127549
 H         -2.4285053014       -2.1348870372       -1.2657385785
 H         -1.0090092628       -3.1029332431       -2.9648780307
 H          1.2964569836       -3.7157799369       -3.5842998856
 H          3.2043763823       -2.8855465079       -2.2654878263
 H          3.9968770707       -1.2418632905       -0.6782353217
 C          3.5180185964       -2.2583561588        1.1306835054
 C          2.5612433983       -3.2302578703        1.7464505967
 C          3.6873573616       -3.7303534753        0.8948935675
 H          4.5111426015       -4.2343392212        1.3768981339
 H          3.4392938459       -4.1163114168       -0.0817944511
 H          2.6062455823       -3.3667753154        2.8159958845
 H          1.5559249859       -3.2693477292        1.3535786211
 H          4.2224033618       -1.7887279005        1.8087081475
