  62
        -98.94940750
 C         -1.3846744153       -1.5778660352        0.2784964084
 C         -1.6269182121       -0.5814058855        1.2540943917
 C         -2.7718449336        0.3025221306        1.0081041344
 C         -3.5125280884        0.1229778112       -0.1003685850
 C         -4.6951835021        0.9618440559       -0.4874871087
 C         -4.2890826960        2.1264924157       -1.3999961854
 C         -3.1079830468        2.9468328682       -0.8801754018
 H         -2.1962174317        2.3449170628       -0.9126644943
 H         -2.9578316038        3.7755951619       -1.5764174651
 C         -3.2899361736        3.5030981615        0.5387897012
 H         -4.3478206907        3.5074913896        0.8062986900
 H         -2.9456849919        4.5394544681        0.5499483610
 C         -2.4912019417        2.7596482697        1.6112739652
 H         -1.4608228284        2.6390480223        1.2645714014
 H         -2.4666403359        3.3804489278        2.5113149809
 C         -3.0395633597        1.3843137011        2.0153801162
 H         -2.5276436071        1.0759688897        2.9318282172
 H         -4.1079814849        1.4619610443        2.2284925340
 H         -4.0185189716        1.7231220232       -2.3786558644
 H         -5.1553234254        2.7787922704       -1.5288820183
 H         -5.1721324248        1.3428208922        0.4135951017
 H         -5.4038597788        0.3264180032       -1.0220449230
 O         -3.2469041490       -0.8390763929       -1.0203919166
 C         -2.1540156388       -1.6833443559       -0.8796958881
 O         -1.9899724374       -2.4701595413       -1.8317222436
 O         -0.9126963205       -0.4376150573        2.2841557734
 C         -0.1733966188       -2.4767678518        0.4434844981
 C          0.8804834892       -2.1233914884       -0.5797645715
 C          1.7084621524       -3.0585004290       -1.1882495107
 C          2.6716380719       -2.6506316512       -2.0957237822
 C          2.8467360394       -1.3125339352       -2.4002520304
 C          2.0249731444       -0.3689990161       -1.7937089367
 C          1.0549628735       -0.7840005171       -0.8971759380
 H          0.4065454976       -0.0452071986       -0.4549645622
 N          2.1490301763        0.9992368970       -2.0723416375
 S          1.8387098852        2.1349966561       -0.8844076217
 O          0.4267807845        2.2096676915       -0.6092114605
 O          2.4465462015        3.3465378120       -1.3930997896
 C          2.7521533440        1.5660596931        0.5381321943
 C          2.1154864141        0.9991822716        1.6224850189
 C          2.8844630778        0.5300233546        2.6771610142
 C          4.2651150417        0.6348296729        2.6323543888
 C          4.8900459819        1.2148401512        1.5381258636
 C          4.1286933173        1.6819547225        0.4805630882
 H          4.5740902182        2.1509901391       -0.3818410881
 H          5.9641589683        1.3012710862        1.5065894311
 H          4.8558656789        0.2651347662        3.4555813481
 H          2.3884199689        0.0814963113        3.5232171771
 H          1.0396684051        0.9190795562        1.6448361649
 H          2.9384749966        1.2544874742       -2.6461557308
 H          3.6005380325       -1.0001005335       -3.1063669419
 H          3.3021809046       -3.3875534284       -2.5695035670
 H          1.5942671342       -4.1053214205       -0.9590193419
 H          0.2369651331       -2.2278551462        1.4348628178
 C         -0.5611465249       -3.9398779787        0.4332523271
 C          0.2167142720       -4.9334451073        1.2423096766
 C         -1.1631310193       -4.5360553063        1.6695482567
 H         -1.9666534226       -5.2485660227        1.5592868846
 H         -1.2677323157       -3.8917048431        2.5304069584
 H          0.3602914897       -5.9251171197        0.8404592571
 H          1.0498113362       -4.5654039308        1.8218473500
 H         -0.9644112940       -4.2573343597       -0.5212747067
