  62
        -98.94591552
 C         -1.2952118446       -1.4212621256        0.6212943428
 C         -2.3720605234       -1.3146695248       -0.2934948366
 C         -3.3697798490       -0.2749010813        0.0067454856
 C         -3.2174613961        0.5003353364        1.0945880134
 C         -4.1356877258        1.6208721202        1.4881189692
 C         -3.6944652430        2.9608122562        0.8818342541
 C         -3.3822422048        2.8927020181       -0.6129073886
 H         -3.1061396951        3.8999108643       -0.9319718897
 H         -2.5123237892        2.2510658465       -0.7697675849
 C         -4.5436389715        2.3878309606       -1.4801767458
 H         -4.6299319786        3.0302985236       -2.3589187303
 H         -5.4811752140        2.4671917812       -0.9284963577
 C         -4.3767296367        0.9555930941       -1.9903576743
 H         -3.3967111537        0.8447070047       -2.4609751509
 H         -5.1320298200        0.7791217741       -2.7607892095
 C         -4.5329273916       -0.1477597147       -0.9365744773
 H         -5.4626155062        0.0002956903       -0.3832732181
 H         -4.5959580055       -1.1040296195       -1.4638262853
 H         -4.4855112467        3.6923756156        1.0567643372
 H         -2.7996368849        3.3032577299        1.4067670487
 H         -5.1462150072        1.3809810424        1.1623164037
 H         -4.1271681622        1.7041041820        2.5764540074
 O         -2.1731752054        0.3669269730        1.9528121543
 C         -1.1969935042       -0.5919684809        1.7417047911
 O         -0.3052974332       -0.6088790145        2.6151047877
 H          2.2169931096       -1.2580117156        0.8311891064
 C          1.9802373840       -1.3527975537       -0.2180396742
 C          0.7906570086       -1.9528335848       -0.6086751812
 C          0.5143018920       -2.0681363720       -1.9671610527
 C          1.4135219592       -1.5950067826       -2.9051168872
 C          2.5939073057       -0.9889485170       -2.5123239238
 C          2.8773649142       -0.8637989944       -1.1576036067
 N          4.0705975874       -0.2591545071       -0.7287171295
 S          4.0413776367        0.8108612539        0.5574483065
 O          5.2646105339        1.5707910042        0.4136489825
 O          3.8864529853        0.0939371363        1.7963816880
 C          2.6380503949        1.8627542813        0.2378282503
 C          1.4583732245        1.6861847530        0.9297480320
 C          0.3729562581        2.4879937734        0.6121330293
 C          0.4816818379        3.4439528379       -0.3845328580
 C          1.6773736093        3.6125587060       -1.0671339467
 C          2.7651287740        2.8141385819       -0.7567622291
 H          3.7151867854        2.9235076731       -1.2543143456
 H          1.7611832382        4.3608063075       -1.8386534823
 H         -0.3692518300        4.0611242521       -0.6263279663
 H         -0.5515619002        2.3481086367        1.1502595371
 H          1.3889447407        0.9353930438        1.7016144702
 H          4.6508799568        0.0918398867       -1.4770602290
 H          3.2931489669       -0.6180235674       -3.2460986614
 H          1.1890620259       -1.6924252214       -3.9564392717
 H         -0.4190212551       -2.5077079614       -2.2800602533
 C         -0.1722190227       -2.4342685094        0.4509369888
 H          0.3675902808       -2.4410299855        1.4078332270
 C         -0.6755538370       -3.8379017883        0.1791896233
 C          0.2529555574       -4.9926532184        0.3985599831
 C         -0.8989923156       -4.7687852662        1.3308801028
 H         -1.7374513490       -5.4478559215        1.2896034248
 H         -0.6874585775       -4.3977450391        2.3236769476
 H          1.2467177913       -4.7722523613        0.7596064824
 H          0.2079194936       -5.8278978970       -0.2832271074
 H         -1.3718521892       -3.8992758719       -0.6460648817
 O         -2.5196638511       -2.0435409917       -1.3081309793
