  62
        -98.93921928
 C         -2.4210582964       -0.9995368664        0.0329294734
 C         -2.2539792410        0.3556111895       -0.3421505754
 C         -3.1999897524        1.3065229986        0.2577001617
 C         -4.1223009105        0.8792665719        1.1378671466
 C         -5.1315917815        1.7343909078        1.8544063089
 C         -6.4010402944        2.0168846330        1.0391616294
 C         -6.2245953090        2.9975486171       -0.1208856009
 H         -7.2244663301        3.2696342396       -0.4648188399
 H         -5.7471921642        3.9075794976        0.2437616698
 C         -5.4301903612        2.4371040515       -1.3088694693
 H         -5.3920491343        1.3474446197       -1.2401934622
 H         -5.9471597390        2.6804090783       -2.2399017346
 C         -4.0044638581        2.9754224179       -1.4285808511
 H         -3.5239967394        2.4848088642       -2.2788913962
 H         -4.0338221762        4.0483200159       -1.6313343731
 C         -3.1328071931        2.7362502407       -0.1888397515
 H         -3.4368264533        3.4014792709        0.6187903311
 H         -2.0950184864        2.9548856435       -0.4515307561
 H         -6.7900095419        1.0692562530        0.6594340457
 H         -7.1438740344        2.4292789567        1.7258573091
 H         -4.6703195501        2.6769207395        2.1505826165
 H         -5.4160405695        1.1878617782        2.7561343957
 O         -4.2300998818       -0.4259776784        1.5009695990
 C         -3.4076073022       -1.3893666013        0.9460318267
 O         -3.6468556020       -2.5486572454        1.3395465481
 O         -1.3684348906        0.7811807445       -1.1322655405
 C         -1.5611284656       -2.1309118519       -0.5106084381
 C         -0.2240431971       -2.1866011014        0.1903630498
 C          0.1114817882       -3.2699762155        0.9934904897
 C          1.3404017248       -3.3216269966        1.6280247158
 C          2.2559880343       -2.2949507114        1.4814515740
 C          1.9285256101       -1.2060400846        0.6837015528
 C          0.6996081593       -1.1621281892        0.0400021184
 H          0.4426822457       -0.3083206420       -0.5698971840
 N          2.8306829117       -0.1270908997        0.5501995223
 S          4.3793129539       -0.4719084355       -0.0287822689
 O          4.3090308066       -0.9923609287       -1.3780109392
 O          5.0568016124       -1.3040586038        0.9322983965
 C          5.0974897245        1.1579067881       -0.0326442852
 C          5.5765490083        1.6700917554        1.1577573524
 C          6.1143585874        2.9470134668        1.1688214155
 C          6.1623941352        3.6866057705       -0.0036522712
 C          5.6775152795        3.1588445341       -1.1906828185
 C          5.1373500490        1.8824036130       -1.2081683503
 H          4.7565689902        1.4296442064       -2.1098001175
 H          5.7179069110        3.7353296475       -2.1009062133
 H          6.5825897322        4.6799337032        0.0069300511
 H          6.4937673293        3.3609329724        2.0891385288
 H          5.5256044303        1.0562354686        2.0416972440
 H          2.4277880318        0.6014356238       -0.0264924178
 H          3.2186171922       -2.3301585491        1.9642844062
 H          1.5883235421       -4.1703964541        2.2476494674
 H         -0.6034713857       -4.0693411566        1.1266060209
 H         -2.1021455635       -3.0547928108       -0.2660743238
 C         -1.3846813984       -2.0665702680       -2.0158319319
 C         -1.0009127504       -3.3113672036       -2.7550089485
 C         -2.3819403232       -2.7474530067       -2.9016834251
 H         -2.6516464510       -2.2736510995       -3.8336262959
 H         -3.1988321361       -3.2702120085       -2.4252984883
 H         -0.3172577545       -3.2266329001       -3.5858963109
 H         -0.8815243066       -4.2173837642       -2.1800278087
 H         -0.9728706949       -1.1285260243       -2.3635331518
