  62
        -98.94436064
 C          1.7878419951        0.6626804757       -0.0468031188
 C          2.9385293366        1.2605298323        0.5206453719
 C          4.2181688128        0.9260429285       -0.1177284274
 C          4.2253462037        0.1063919986       -1.1849767546
 C          5.4611657170       -0.3597010716       -1.8978612220
 C          5.9816883609       -1.6762426708       -1.3041458478
 C          6.1027786652       -1.6611633073        0.2196724666
 H          5.1040691887       -1.5788750895        0.6547068929
 H          6.5059618082       -2.6297093801        0.5233143976
 C          6.9920459617       -0.5397111932        0.7748417475
 H          7.6465541279       -0.9593900080        1.5416875561
 H          7.6311287107       -0.1477826897       -0.0171580950
 C          6.2265470505        0.6139309549        1.4255216514
 H          5.5177792447        0.2167395168        2.1565207292
 H          6.9441051750        1.2338387410        1.9695104206
 C          5.4630534378        1.5343269053        0.4648442252
 H          6.1322663607        1.8759247347       -0.3272756149
 H          5.1309347598        2.4068686391        1.0349211363
 H          5.2944868821       -2.4778590947       -1.5850210467
 H          6.9557306715       -1.8932653333       -1.7464183458
 H          5.2122364156       -0.5186678843       -2.9484371606
 H          6.2269827082        0.4103809304       -1.8282995539
 O          3.0976360433       -0.4352620942       -1.7130480985
 C          1.8522432341       -0.1821584020       -1.1545506802
 O          0.9065887813       -0.7553534463       -1.7279712124
 O          2.8967858123        2.0325603441        1.5160789232
 C          0.4321908893        0.9580560660        0.5683513144
 C         -0.2475876244       -0.3211409537        0.9876103051
 C          0.4680921569       -1.2440425676        1.7468672777
 C         -0.1133875567       -2.4287170979        2.1523337122
 C         -1.4233116657       -2.7181930740        1.8124497134
 C         -2.1526878835       -1.7989379685        1.0687538026
 C         -1.5668960683       -0.6043049201        0.6700541840
 H         -2.1469522130        0.0897364732        0.0857885193
 N         -3.4969416598       -2.0451174137        0.7625680055
 S         -4.2105926000       -1.4788905881       -0.6379654173
 O         -5.4250788940       -2.2607180447       -0.7500717411
 O         -3.3219891645       -1.5293929551       -1.7741724190
 C         -4.6524307842        0.2058754663       -0.2672002837
 C         -4.5430343935        1.1580869559       -1.2609403530
 C         -4.9336408291        2.4603649972       -0.9893437216
 C         -5.4237169516        2.7860016242        0.2660615957
 C         -5.5270806370        1.8176396650        1.2530450378
 C         -5.1435667870        0.5130333821        0.9863649889
 H         -5.2116045478       -0.2641888789        1.7287827831
 H         -5.9061667464        2.0754452617        2.2287452275
 H         -5.7234023707        3.8007068813        0.4753284717
 H         -4.8534080338        3.2136618891       -1.7572567126
 H         -4.1429257707        0.8635552145       -2.2185658827
 H         -3.8365533664       -2.9610641108        1.0161539621
 H         -1.8774830527       -3.6476823425        2.1203520082
 H          0.4575423107       -3.1374603502        2.7333502445
 H          1.4937109512       -1.0205518702        2.0078121517
 H          0.6485606421        1.5432785269        1.4750988760
 C         -0.4006026054        1.8092131129       -0.3667905463
 C         -1.4005404064        2.7766776129        0.1905856320
 C         -0.1340933829        3.2823737627       -0.4302976681
 H         -0.1874670117        3.7741653844       -1.3899263440
 H          0.6367207872        3.6727632006        0.2180095654
 H         -2.3288120499        2.9225088999       -0.3404926914
 H         -1.4943401965        2.8311005551        1.2644682599
 H         -0.6359919187        1.3007744291       -1.2960991881
