  62
        -98.93697443
 C         -1.7946378647       -0.2675436407       -0.2674374688
 C         -2.9696803839       -0.5052457733       -1.0167277940
 C         -4.2329147188       -0.5328677324       -0.2609805333
 C         -4.2077486770       -0.3463879679        1.0700681742
 C         -5.3596983067       -0.3802029032        2.0434083660
 C         -6.6625801325        0.3159656047        1.6268262126
 C         -6.4809543442        1.5615895298        0.7473071210
 H         -7.0488266703        2.3872370018        1.1801589824
 H         -5.4313947072        1.8599799766        0.7329838489
 C         -6.9722140987        1.3559333782       -0.6876315298
 H         -7.9239272298        0.8207740860       -0.6588695343
 H         -7.1608719909        2.3334374215       -1.1380101126
 C         -6.0079937702        0.6115569114       -1.6104087309
 H         -5.1429717822        1.2432153523       -1.8299228884
 H         -6.5208713243        0.4313407696       -2.5583231993
 C         -5.4803809523       -0.7291024058       -1.0737722339
 H         -6.2473845305       -1.2593540471       -0.5145114528
 H         -5.1881349750       -1.3419191155       -1.9310412881
 H         -7.3056717555       -0.3935900721        1.1080272626
 H         -7.1798114725        0.5924484926        2.5471920421
 H         -5.5733941239       -1.4268416605        2.2794173874
 H         -4.9732924601        0.0817018782        2.9550394245
 O         -3.0490018085       -0.1231699958        1.7529760695
 C         -1.8206808277       -0.0756225449        1.1129561714
 O         -0.8545051794        0.1397310303        1.8679592147
 O         -2.9636083142       -0.7029414106       -2.2619107566
 C         -0.4575614407       -0.2293820361       -0.9830604390
 C          0.4735760201       -1.2740182576       -0.4194073545
 C         -0.0080504214       -2.5624913249       -0.1998768075
 C          0.8118307028       -3.5448482594        0.3186826034
 C          2.1356956370       -3.2697082837        0.6141332366
 C          2.6310999683       -1.9925692309        0.3861465825
 C          1.8007380058       -1.0040719150       -0.1259178849
 H          2.2051367220       -0.0207381979       -0.2964434904
 N          3.9622680695       -1.6772274720        0.6907692586
 S          4.8384836555       -0.6481541233       -0.2909426907
 O          4.4780540529       -0.7989873503       -1.6813890224
 O          6.2213259155       -0.9259081070        0.0360203412
 C          4.4347342149        0.9908229206        0.2750225492
 C          4.3911087334        2.0184998528       -0.6463636810
 C          4.1216823503        3.3048232644       -0.2056864246
 C          3.9018819464        3.5396175217        1.1426642094
 C          3.9515889680        2.4968871258        2.0552982034
 C          4.2248456339        1.2093419564        1.6219729639
 H          4.2643471289        0.3772469740        2.3049098146
 H          3.7755367273        2.6822299409        3.1027041194
 H          3.6886089711        4.5404145809        1.4839107026
 H          4.0822672311        4.1169830381       -0.9143629008
 H          4.5566555644        1.7885628778       -1.6870324525
 H          4.5209909823       -2.4465891940        1.0292410271
 H          2.7783456212       -4.0363176843        1.0197369623
 H          0.4203978522       -4.5364471982        0.4901211441
 H         -1.0405077641       -2.7816245079       -0.4363878854
 H         -0.6757673166       -0.4984772663       -2.0279227771
 C          0.1134846531        1.1729747176       -0.9513665555
 C          1.0143884254        1.6513493258       -2.0492627899
 C         -0.3839169409        2.1791012772       -1.9440124427
 H         -0.5277171324        3.1981725660       -1.6181820796
 H         -1.1147367896        1.8432719219       -2.6652993789
 H          1.8305617483        2.3090968880       -1.7914110965
 H          1.2429831817        0.9600639528       -2.8466256973
 H          0.3093787758        1.5181739056        0.0580009939
