  62
        -98.94589002
 C         -1.5718093994       -1.4612042184       -0.2041217667
 C         -1.5377706808       -0.0723425596       -0.4785472133
 C         -2.8461003309        0.5716952900       -0.6659687798
 C         -3.9649616021       -0.1708979901       -0.5833603446
 C         -5.3607153387        0.3690271936       -0.6980230894
 C         -5.9187468723        0.7619106781        0.6771533230
 C         -4.9713222378        1.6320812835        1.5032696723
 H         -5.4821217480        1.8695667466        2.4390838971
 H         -4.0845001330        1.0484612630        1.7608752390
 C         -4.5378958197        2.9326067173        0.8124010291
 H         -5.2215972206        3.1621945286       -0.0057309486
 H         -4.6084040978        3.7506922984        1.5324198909
 C         -3.1013391019        2.9232766443        0.2860782691
 H         -2.8320998415        3.9486434690        0.0197649220
 H         -2.4222039378        2.6005379735        1.0791592175
 C         -2.8492482285        2.0476623151       -0.9476059709
 H         -1.8465914389        2.2786497712       -1.3187283864
 H         -3.5738250079        2.2913379129       -1.7271349825
 H         -6.8635126590        1.2882860403        0.5290274139
 H         -6.1241307322       -0.1511343745        1.2410036005
 H         -5.9959338377       -0.4062600320       -1.1297766170
 H         -5.3572013724        1.2324936541       -1.3603457322
 O         -3.9543261151       -1.5059710548       -0.3322389047
 C         -2.7618605597       -2.1818808608       -0.1248383764
 O         -2.8931907477       -3.3985150661        0.1211348836
 O         -0.4753010901        0.5936362193       -0.5606666854
 C         -0.2659532301       -2.2059689948        0.0067792460
 C          0.5399163672       -1.5133941219        1.0778248535
 C         -0.0642480136       -1.2395737969        2.3028942523
 C          0.6251468098       -0.5750270926        3.2977798583
 C          1.9279535670       -0.1560785872        3.0890185270
 C          2.5439912507       -0.4369039779        1.8761590531
 C          1.8561650346       -1.1268842036        0.8866565492
 H          2.3667624761       -1.3503308890       -0.0339460772
 N          3.8654659939       -0.0385851215        1.6387979618
 S          4.3917798187        0.3353027104        0.1000048106
 O          4.6166872120       -0.8740424383       -0.6528903574
 O          5.5642539601        1.1561472559        0.3232192843
 C          3.1178255099        1.3156118479       -0.6717286368
 C          2.6493873831        0.9564702722       -1.9178203028
 C          1.6908686959        1.7473918045       -2.5282462718
 C          1.2176500162        2.8773740471       -1.8828483466
 C          1.6963083277        3.2243053077       -0.6300759114
 C          2.6576212256        2.4394106589       -0.0167722814
 H          3.0514917572        2.6883435913        0.9555683270
 H          1.3172461154        4.0997210649       -0.1273090101
 H          0.4656093506        3.4880839694       -2.3578863176
 H          1.3081704023        1.4734128354       -3.4989650944
 H          3.0388796647        0.0638497872       -2.3824421326
 H          4.2678895012        0.5669256147        2.3380912256
 H          2.4633075360        0.3788508410        3.8584587334
 H          0.1417309401       -0.3684803502        4.2409641062
 H         -1.0889760402       -1.5499341296        2.4590946925
 H         -0.5337658534       -3.2111759748        0.3633043803
 C          0.4705867050       -2.3317478687       -1.3105481793
 C          1.4284078954       -3.4612641509       -1.5369830527
 C          0.1100885199       -3.4411838160       -2.2498326654
 H          0.0982544385       -3.2369434833       -3.3099657867
 H         -0.6566040369       -4.1321260835       -1.9301125105
 H          2.3287975198       -3.2707455552       -2.1022178130
 H          1.5601764319       -4.1723471032       -0.7352794483
 H          0.7073305386       -1.3665656633       -1.7447622496
