  62
        -98.93552064
 C         -2.5239101570       -0.8401686508        0.7662312415
 C         -2.8500536406       -0.3741925635       -0.5320072334
 C         -3.6054065252        0.8889296009       -0.5875947378
 C         -3.9180504345        1.5280141230        0.5533067831
 C         -4.6398044952        2.8412488003        0.6346848097
 C         -3.6543018346        4.0181756859        0.6430676942
 C         -2.5983853865        3.9476953931       -0.4602637506
 H         -1.9799782625        4.8439099881       -0.3762442796
 H         -1.9471564521        3.0895169596       -0.2779904989
 C         -3.1706504179        3.8533217557       -1.8815303447
 H         -2.6217745035        4.5425831707       -2.5265845612
 H         -4.2141961032        4.1702944597       -1.8828221782
 C         -3.0622992078        2.4664651331       -2.5184598565
 H         -2.0347379182        2.1024345106       -2.4364842410
 H         -3.2898791950        2.5629058255       -3.5834594092
 C         -3.9989051106        1.3944895689       -1.9471192017
 H         -5.0247210972        1.7688060622       -1.9372942334
 H         -3.9546595986        0.5281143163       -2.6137057697
 H         -3.1415668322        4.0331958721        1.6076094852
 H         -4.2230378009        4.9446994867        0.5462427335
 H         -5.2197517189        2.8579062840        1.5590390625
 H         -5.3195727978        2.9285266318       -0.2106100929
 O         -3.5582735509        1.0675426921        1.7790437886
 C         -2.8422960730       -0.1102437607        1.9142902147
 O         -2.5450943973       -0.3935763987        3.0925950394
 O         -2.5396738032       -0.9688519450       -1.5951860360
 C         -1.7453055760       -2.1269269171        0.9829043884
 C         -0.5603862200       -2.1785959686        0.0493947032
 C         -0.4041740640       -3.1352387802       -0.9437371782
 C          0.7121737063       -3.1167788601       -1.7617306345
 C          1.6920127273       -2.1540712178       -1.6076285704
 C          1.5488572913       -1.1946461751       -0.6132441266
 C          0.4322612697       -1.2187865304        0.2089963027
 H          0.3161888664       -0.4704634129        0.9846666947
 N          2.5344365506       -0.1996598291       -0.4555794418
 S          4.1439949454       -0.7167480441       -0.4963583911
 O          4.5469184563       -0.8467827088       -1.8740934880
 O          4.3058779641       -1.8976507536        0.3222864915
 C          4.9786588431        0.6723809145        0.2440438013
 C          5.3225565451        0.6205936728        1.5814530066
 C          5.9609848827        1.7106109307        2.1519741297
 C          6.2398709253        2.8285585993        1.3802808215
 C          5.8872374226        2.8659643210        0.0392415966
 C          5.2502592832        1.7790839832       -0.5380125061
 H          4.9676543914        1.7591141468       -1.5775660538
 H          6.1080217643        3.7362486706       -0.5574415636
 H          6.7380337793        3.6747749480        1.8264797817
 H          6.2385467273        1.6830729451        3.1934343623
 H          5.0944795682       -0.2728145601        2.1406016577
 H          2.3649446670        0.3720892460        0.3609386952
 H          2.5662726659       -2.1339851359       -2.2382190686
 H          0.8194921930       -3.8620632449       -2.5356785423
 H         -1.1675005936       -3.8806680562       -1.0941662837
 H         -1.3541645243       -2.0499610436        2.0112306338
 C         -2.5966598457       -3.3871691339        0.9439390027
 C         -4.0245267865       -3.3631973957        1.3995942703
 C         -3.7027527205       -3.5888256263       -0.0456667770
 H         -3.8486123159       -4.5788647649       -0.4527824960
 H         -3.8972057760       -2.7954435707       -0.7492821269
 H         -4.3906053581       -4.1940726714        1.9837701224
 H         -4.4399807197       -2.4089409687        1.6899042994
 H         -2.0213750969       -4.2669043564        1.2168593252
