  62
        -98.93413431
 C         -2.4283595166       -1.1002500590        0.1068919176
 C         -2.7140801518        0.0359828211       -0.6826877267
 C         -4.1335026272        0.4341569971       -0.7833315094
 C         -5.0604638178       -0.3009961007       -0.1409853979
 C         -6.5460905501       -0.0683038550       -0.0654775653
 C         -6.9176702996        1.0699390606        0.8989531551
 C         -6.0442177397        2.3169740726        0.7886451602
 H         -6.3343276045        2.9975268438        1.5935636057
 H         -5.0016758599        2.0412902226        0.9581349902
 C         -6.1595786420        3.0776517273       -0.5301094693
 H         -7.1970690228        3.3866899617       -0.6756571913
 H         -5.5533680773        3.9822511930       -0.4364722361
 C         -5.6977448092        2.3249892762       -1.7796596877
 H         -6.4437937700        1.6032480524       -2.1010894027
 H         -5.6082470390        3.0583601690       -2.5864617487
 C         -4.3342448395        1.6523410918       -1.6524015206
 H         -3.9965228086        1.3574082237       -2.6533979470
 H         -3.5996016807        2.3895525039       -1.3085717636
 H         -6.8266367951        0.6899319530        1.9194125199
 H         -7.9620694643        1.3376373317        0.7305729291
 H         -6.9456120651        0.1174345507       -1.0578543902
 H         -6.9896470444       -0.9955435521        0.3038737373
 O         -4.7348444725       -1.3955028244        0.6064142543
 C         -3.4304934664       -1.8207139451        0.7540328520
 O         -3.2907973166       -2.8301077008        1.4751639898
 H          1.5317362715       -0.7819674187       -0.5196752333
 C          1.1427402526       -0.2188672944        0.3119290859
 C         -0.1209241119       -0.4809886126        0.8160016324
 C         -0.5752700342        0.2720183906        1.8960880061
 C          0.2099604748        1.2672340703        2.4442183747
 C          1.4752056770        1.5197078532        1.9433948920
 C          1.9406975632        0.7709630951        0.8699384412
 N          3.2132315522        1.0091323039        0.3260957315
 S          4.1004958840       -0.3124204940       -0.2378795028
 O          3.7089363519       -0.5972345107       -1.5952165891
 O          4.0046006726       -1.4084748484        0.6995547163
 C          5.7476131181        0.3724773111       -0.2192911759
 C          6.5647715421        0.1385594212        0.8707247389
 C          7.8329987635        0.6974040863        0.8902198568
 C          8.2592572796        1.4789198560       -0.1731445086
 C          7.4281101840        1.7043644923       -1.2605196350
 C          6.1594008238        1.1474383851       -1.2871480320
 H          5.4825845087        1.2868125419       -2.1140409906
 H          7.7640795429        2.3099436555       -2.0867236508
 H          9.2466799451        1.9125214972       -0.1557988196
 H          8.4825953785        0.5211498425        1.7323993379
 H          6.1944069720       -0.4832646632        1.6698871399
 H          3.7772367475        1.6236997741        0.8969692072
 H          2.0917725609        2.2932386372        2.3754886187
 H         -0.1613657320        1.8458942340        3.2768644841
 H         -1.5585782856        0.0660078810        2.2979809118
 C         -0.9972511805       -1.5776798851        0.2606922679
 H         -1.0252921132       -2.3923463438        1.0007164316
 C         -0.4933290706       -2.1368011195       -1.0538882116
 C          0.5506038121       -3.2112905343       -1.0691490285
 C         -0.8638285060       -3.5348707439       -1.4437228335
 H         -1.0900862328       -3.7392457181       -2.4793926394
 H         -1.4618590962       -4.1011498220       -0.7443043914
 H          1.3022089672       -3.1871065341       -1.8446310545
 H          0.9209425798       -3.5622756241       -0.1172300200
 H         -0.4640394047       -1.3886400911       -1.8386429275
 O         -1.8270577610        0.7031114806       -1.2781756307
