  62
        -98.94113623
 C          1.6808135351        0.2420677865        0.2418046939
 C          2.8211273264        0.9975459510       -0.1251838747
 C          3.9481053849        0.2308576784       -0.6807319843
 C          3.8321141509       -1.0981097155       -0.8484909442
 C          4.9185497830       -1.9997051583       -1.3570596723
 C          5.7638972968       -2.5565759126       -0.2028587902
 C          6.2388310244       -1.4911824741        0.7852625809
 H          5.3721752270       -1.0721286556        1.3016327371
 H          6.8486592137       -1.9948435234        1.5384819556
 C          7.0487167980       -0.3521814056        0.1503308661
 H          7.4140729270       -0.6591534347       -0.8303580348
 H          7.9229235371       -0.1540590349        0.7741966813
 C          6.2885500951        0.9686567131        0.0166277178
 H          5.8428391590        1.2338513321        0.9786859299
 H          7.0089654631        1.7511419282       -0.2364946777
 C          5.1864606181        0.9987728552       -1.0497479527
 H          4.8696128120        2.0387613720       -1.1706039346
 H          5.5872207086        0.6494847562       -2.0033834173
 H          6.6270943902       -3.0739680332       -0.6255189781
 H          5.1639380098       -3.2872263540        0.3444480889
 H          4.4538622445       -2.8311594648       -1.8895687781
 H          5.5498059692       -1.4455574318       -2.0489409956
 O          2.7081076000       -1.7853573011       -0.5231767453
 C          1.6198604567       -1.1408299779        0.0367845579
 O          0.6659984858       -1.8965781382        0.3096878591
 H         -2.0756411437        0.1062479392        0.2559414094
 C         -1.7576716423        0.9492099515       -0.3381702600
 C         -0.4760345586        1.4549339727       -0.1784243581
 C         -0.0731934532        2.5260207170       -0.9688016962
 C         -0.9425274460        3.0751923732       -1.8930271577
 C         -2.2302707545        2.5868960585       -2.0296646145
 C         -2.6418700493        1.5162940637       -1.2449360758
 N         -3.9355505211        0.9918944641       -1.3652594267
 S         -4.7528515437        0.4236345201       -0.0208195747
 O         -6.1498407194        0.5017872657       -0.3912720746
 O         -4.3716471351        1.1363154131        1.1757107770
 C         -4.2849608081       -1.2892465951        0.0948168338
 C         -4.4810663878       -2.0946706604       -1.0093193066
 C         -4.1403774704       -3.4348504356       -0.9284794637
 C         -3.6138848790       -3.9447313514        0.2487328821
 C         -3.4267722309       -3.1241574679        1.3497794861
 C         -3.7661119396       -1.7827507128        1.2747308327
 H         -3.6330130586       -1.1096517003        2.1075816730
 H         -3.0131913882       -3.5211955071        2.2629573080
 H         -3.3455862661       -4.9876377033        0.3095959140
 H         -4.2833657816       -4.0777326850       -1.7821429974
 H         -4.8965840708       -1.6632269035       -1.9046982391
 H         -4.5434402772        1.4907095429       -1.9980765802
 H         -2.9126564636        3.0289581309       -2.7398837494
 H         -0.6190128102        3.9035418838       -2.5053155262
 H          0.9261871818        2.9165013983       -0.8547823554
 C          0.4346591868        0.8510172656        0.8638679953
 H         -0.1062359258        0.0113124521        1.3213729099
 C          0.7305758046        1.8712009822        1.9476853061
 C         -0.3777351943        2.2728964747        2.8724798167
 C          0.7575457141        1.4362510208        3.3802380504
 H          1.4767930863        1.8923459365        4.0440653617
 H          0.5684868869        0.3935488430        3.5913352724
 H         -0.4364838759        3.3038162350        3.1868889692
 H         -1.3421271379        1.8054321491        2.7336925417
 H          1.4334781174        2.6344996540        1.6419054567
 O          2.9210882789        2.2478243055       -0.0060560889
