  62
        -98.94079254
 C          0.6082684988        1.4112618877        0.7050755749
 C          1.2329380967        1.2543797665       -0.5552094986
 C          2.2153650454        0.1635145130       -0.6561976431
 C          2.4395290391       -0.6190294666        0.4146704015
 C          3.4449570175       -1.7340251408        0.4864495149
 C          4.8661054058       -1.1586429679        0.6497229277
 C          5.7939892440       -1.4282394123       -0.5346306730
 H          6.6802735322       -0.8035019506       -0.4057557852
 H          6.1174189159       -2.4707531590       -0.5032386954
 C          5.1966308058       -1.1651701309       -1.9202576356
 H          6.0285498086       -1.1436190402       -2.6274920875
 H          4.5612984300       -2.0025416285       -2.2136176508
 C          4.3917273052        0.1326569016       -2.0669074346
 H          4.6135864836        0.5608308225       -3.0465962200
 H          4.7027966075        0.8653913329       -1.3219478952
 C          2.8635809835       -0.0466962763       -1.9958046107
 H          2.3921262021        0.6932485094       -2.6500300798
 H          2.5858060992       -1.0335203585       -2.3791795539
 H          4.7821654905       -0.0819434682        0.8099018577
 H          5.3266580475       -1.5758429253        1.5463337807
 H          3.1858913340       -2.3521768741        1.3463746762
 H          3.3777173190       -2.3440489092       -0.4123005212
 O          1.8132473199       -0.4403481798        1.6074531328
 C          0.8686545177        0.5592938257        1.7761643701
 O          0.3397852223        0.5836497093        2.9056799268
 O          0.9838424317        1.9896209090       -1.5465949355
 C         -0.4642494202        2.4694545040        0.8898381569
 C         -1.5931637930        2.2092585837       -0.0791569043
 C         -2.2484685622        3.2103323466       -0.7840819953
 C         -3.2615654836        2.8902632187       -1.6717884717
 C         -3.6307833041        1.5749187307       -1.8856951785
 C         -2.9892379027        0.5668668197       -1.1749001331
 C         -1.9998749040        0.8940429865       -0.2638248172
 H         -1.5077645134        0.1069808143        0.2891763094
 N         -3.3369400883       -0.7824662509       -1.3431531396
 S         -2.1380756676       -1.9504706452       -1.2989093419
 O         -0.8961612604       -1.4810014495       -1.8668649503
 O         -2.7378234580       -3.0954439114       -1.9545021567
 C         -1.9290070907       -2.3274383606        0.4272339374
 C         -3.0455276333       -2.4712133783        1.2263930990
 C         -2.8709625983       -2.7871439985        2.5641099125
 C         -1.5931996044       -2.9569467408        3.0753665210
 C         -0.4831414171       -2.8172544031        2.2575990775
 C         -0.6513068009       -2.5018052480        0.9193174456
 H          0.1849779330       -2.3649091703        0.2501961983
 H          0.5113525512       -2.9346921186        2.6572254350
 H         -1.4579479387       -3.1943836670        4.1186808367
 H         -3.7303884404       -2.8953927041        3.2060192694
 H         -4.0220044219       -2.3269820176        0.7950830684
 H         -4.0093251295       -0.9637080394       -2.0744872645
 H         -4.4034132035        1.3265036312       -2.5973076318
 H         -3.7598406902        3.6764847977       -2.2185123911
 H         -1.9591792653        4.2394931618       -0.6478051674
 H         -0.8519926679        2.3350365896        1.9106736135
 C          0.1266322078        3.8586602858        0.7695595954
 C         -0.4659556468        5.0025207030        1.5350556996
 C          0.8595625910        4.4350845899        1.9424120208
 H          1.7506769943        5.0163046061        1.7587764546
 H          0.9071701402        3.8343382278        2.8391999290
 H         -0.4828216286        5.9782326171        1.0731773288
 H         -1.3184567769        4.7955779735        2.1640451254
 H          0.5290934879        4.0536419103       -0.2178255448
