  62
        -98.94133081
 C         -1.2189253896       -0.8657088698        0.4924009900
 C         -2.0645000699       -0.6014054698       -0.6099588997
 C         -2.9764129600        0.5474578901       -0.4702169795
 C         -2.9286805198        1.2990884600        0.6427139205
 C         -3.7239968799        2.5369497499        0.9757372508
 C         -5.2190310199        2.5358261798        0.6286300612
 C         -5.9095934098        1.1683350097        0.7369971813
 H         -5.2530836896        0.4575329798        1.2415886511
 H         -6.8084129996        1.2728822996        1.3473492516
 C         -6.3271421201        0.6011419497       -0.6218900986
 H         -7.1086162599       -0.1462369904       -0.4654970984
 H         -6.7598182603        1.4066086797       -1.2192231484
 C         -5.2116733502       -0.0705945802       -1.4217728589
 H         -5.6091230204       -0.3233728502       -2.4075981388
 H         -4.9246338900       -1.0096003501       -0.9410691090
 C         -3.9342932003        0.7650796900       -1.6060512992
 H         -3.4215753705        0.4053423401       -2.5025839594
 H         -4.1663646205        1.8189058800       -1.7410763791
 H         -5.6997249898        3.2421342897        1.3077081113
 H         -5.3586298003        2.9259039498       -0.3785871688
 H         -3.5983822796        2.6734405599        2.0528071707
 H         -3.2401472101        3.3885367600        0.4874316307
 O         -2.0648908995        1.0337157001        1.6635846303
 C         -1.1877025894       -0.0349646398        1.6101370700
 O         -0.4401146991       -0.1384379697        2.6053577698
 H          0.8195833001        0.3055726605       -0.3169972005
 C          1.2323342700       -0.5121159494       -0.8869305106
 C          0.7732498202       -1.8023994295       -0.6635048805
 C          1.2964920301       -2.8329975494       -1.4346433107
 C          2.2435050698       -2.5647432193       -2.4081419809
 C          2.7054174096       -1.2780538792       -2.6189984410
 C          2.1910366897       -0.2410184193       -1.8490097609
 N          2.6230154095        1.0816804107       -2.0252080709
 S          2.7285822897        2.1097149707       -0.7116641009
 O          1.4151178598        2.5222506006       -0.2828033806
 O          3.6033983595        3.1699986208       -1.1663119212
 C          3.5549993802        1.1567461908        0.5500225488
 C          2.8704828905        0.6783191007        1.6479325690
 C          3.5516410609       -0.0974580793        2.5739323788
 C          4.8957763008       -0.3789383891        2.3900852084
 C          5.5723492805        0.1163846110        1.2851160283
 C          4.8971285702        0.8882795809        0.3550795984
 H          5.3896631399        1.3028765110       -0.5094036717
 H          6.6196010405       -0.0983296589        1.1465189580
 H          5.4180085211       -0.9843427191        3.1139924683
 H          3.0151527211       -0.4768445293        3.4292102089
 H          1.8231285505        0.9041122706        1.7769579693
 H          3.3940452693        1.2011752108       -2.6651444211
 H          3.4459257294       -1.0732247391       -3.3765924512
 H          2.6342680898       -3.3725559492       -3.0078623310
 H          0.9570330003       -3.8438963395       -1.2792716606
 C         -0.2364702995       -2.0200775096        0.4391991497
 H          0.3094401608       -1.9958898396        1.3949534096
 C         -0.9694552794       -3.3414453197        0.3296613499
 C         -0.3999677591       -4.5784730897        0.9548465597
 C         -1.6028652390       -3.9198841298        1.5582611501
 H         -2.5625490689       -4.4056007299        1.4644498603
 H         -1.4796582388       -3.3737671198        2.4826265500
 H         -0.5364036091       -5.5217494997        0.4476944197
 H          0.5398094111       -4.4883973096        1.4783434295
 H         -1.5093527296       -3.4392003298       -0.6048709799
 O         -2.0557662401       -1.2832178298       -1.6679886898
