  62
        -98.93976986
 C         -1.7200277963       -1.3236506047        0.4649176523
 C         -1.5317495232       -0.2187442458       -0.4033207155
 C         -2.7517982684        0.3209367585       -1.0287361028
 C         -3.9440873441       -0.2347234626       -0.7514583076
 C         -5.2632141629        0.2487559619       -1.2787414207
 C         -5.8987133885        1.2725860256       -0.3279112667
 C         -4.9464484271        2.3873367646        0.1056225006
 H         -5.5113509219        3.0666180819        0.7477551082
 H         -4.1476935305        1.9594876235        0.7162190791
 C         -4.3256329767        3.1788727809       -1.0539382822
 H         -4.9077615016        3.0228552810       -1.9629885963
 H         -4.3740865284        4.2437828864       -0.8167912949
 C         -2.8569210317        2.8522488580       -1.3316870689
 H         -2.2813223095        2.9200624802       -0.4043451214
 H         -2.4624849233        3.6115256518       -2.0127240328
 C         -2.5855357998        1.4829816922       -1.9671741276
 H         -3.2120407388        1.3575940911       -2.8528874476
 H         -1.5375143688        1.4701127387       -2.2811730399
 H         -6.7698409507        1.7077807171       -0.8209218655
 H         -6.2412326730        0.7483155882        0.5672231900
 H         -5.1154741095        0.6926103743       -2.2612743828
 H         -5.9312231295       -0.6090129781       -1.3734952788
 O         -4.0875586692       -1.2855816424        0.0952907092
 C         -2.9913025600       -1.8389523507        0.7356262099
 O         -3.2749902087       -2.7729311780        1.5121150912
 H          1.9082450207       -0.9273245959        0.5559339243
 C          1.4992353376       -0.5111740265        1.4617660000
 C          0.2549167337       -0.9228929961        1.9149760919
 C         -0.2618409539       -0.3470295462        3.0724659378
 C          0.4541846994        0.6060868972        3.7702145088
 C          1.6981335294        1.0090599385        3.3182755992
 C          2.2165868283        0.4552071681        2.1548083418
 N          3.4870907739        0.8415744880        1.6789657681
 S          3.5523755981        1.6329264022        0.1921679807
 O          4.8286921156        2.3212130412        0.2196633153
 O          2.3958662587        2.4736782898       -0.0089380576
 C          3.6418004019        0.3391189416       -1.0232434104
 C          2.5936725674        0.1352420609       -1.8969699567
 C          2.7213479363       -0.8465519248       -2.8680973723
 C          3.8799830317       -1.6041977718       -2.9412053551
 C          4.9191082840       -1.3914446655       -2.0471315091
 C          4.8037189727       -0.4062374693       -1.0805209126
 H          5.5921025981       -0.1933979185       -0.3778523722
 H          5.8164421550       -1.9863156846       -2.1047667392
 H          3.9713531958       -2.3665232342       -3.6992312239
 H          1.9108665911       -1.0173717631       -3.5589825406
 H          1.6952435293        0.7206622708       -1.7842185374
 H          4.0109417164        1.3876476239        2.3503016054
 H          2.2635121859        1.7546173504        3.8581532987
 H          0.0426975079        1.0395043394        4.6695335644
 H         -1.2372577426       -0.6609271425        3.4198458951
 C         -0.5652568652       -1.9740349262        1.2095953491
 H         -1.0483788151       -2.5882863247        1.9870127828
 C          0.2763034304       -2.9276707789        0.3751699091
 C         -0.3875119863       -3.8783905630       -0.5756641486
 C          0.4807458784       -2.7763470508       -1.0998532791
 H          1.4481393000       -3.0338580054       -1.5052335646
 H          0.0115003898       -1.9398597931       -1.5913359926
 H         -1.4576677139       -3.7893933334       -0.6965631182
 H         -0.0246391329       -4.8936001893       -0.6283774050
 H          1.1138052292       -3.3210123941        0.9432763089
 O         -0.4149919915        0.2952216629       -0.6638952757
