  62
        -98.94874475
 C         -1.8169794158       -1.1404145103       -0.2785803665
 C         -0.8027640015       -1.6680866827       -1.1112399434
 C          0.0994996507       -2.6394095604       -0.4863466935
 C         -0.0584361122       -2.9547090198        0.8121005426
 C          0.7598970014       -3.9536488933        1.5848603568
 C          2.0823999140       -3.3915188164        2.1228116900
 C          3.1727178855       -3.1839019020        1.0712619677
 H          4.1092836816       -3.0260892039        1.6099012183
 H          3.2853228208       -4.0925744588        0.4785792169
 C          2.9322644143       -1.9834253717        0.1453086873
 H          2.2029702378       -1.3098821673        0.6036658566
 H          3.8611541955       -1.4185849099        0.0406152154
 C          2.4691975323       -2.3435664548       -1.2664366107
 H          3.2707862739       -2.8700656241       -1.7895835550
 H          2.2679760433       -1.4130065927       -1.8040118338
 C          1.2055348651       -3.2105966847       -1.3219871734
 H          0.8558106046       -3.2369137550       -2.3571668667
 H          1.4336969853       -4.2276126905       -1.0031888777
 H          1.8790278764       -2.4416178916        2.6242864211
 H          2.4552733618       -4.0934923732        2.8727643380
 H          0.1469373263       -4.2652474296        2.4334905851
 H          0.9598061788       -4.8259023247        0.9611158297
 O         -1.0306344988       -2.4061460565        1.5874109820
 C         -1.9082448522       -1.4632639160        1.0751574272
 O         -2.7212121417       -1.0129476770        1.9065334082
 O         -0.6632722617       -1.3456602284       -2.3227893417
 C         -2.7680800723       -0.1036690047       -0.8486571130
 C         -2.5487767114        1.2125764132       -0.1441939865
 C         -3.5755538085        2.0359118502        0.2968534637
 C         -3.2855043041        3.2137862162        0.9650699910
 C         -1.9780459226        3.5876464996        1.2129050452
 C         -0.9419235982        2.7767805850        0.7600664977
 C         -1.2355738617        1.6145691958        0.0681592055
 H         -0.4318930866        0.9766888086       -0.2692777856
 N          0.3973740560        3.1390494757        0.9661199838
 S          1.6180706290        2.0140256570        1.1625344951
 O          1.1177036346        0.7313270936        1.6010073155
 O          2.5708774352        2.6519296526        2.0480224617
 C          2.3762665713        1.8579559783       -0.4447388023
 C          3.6611003818        1.3500889519       -0.4733254704
 C          4.2949967280        1.1800476609       -1.6931113115
 C          3.6361451294        1.5221532589       -2.8639742864
 C          2.3533512511        2.0437812270       -2.8191556981
 C          1.7137879921        2.2169903364       -1.6004936350
 H          0.7172656004        2.6234741387       -1.5481782811
 H          1.8417254356        2.3141930606       -3.7289701744
 H          4.1253829428        1.3846217839       -3.8152579693
 H          5.2959248234        0.7807925606       -1.7269187516
 H          4.1373309444        1.1074480822        0.4631283844
 H          0.5401961655        3.9432491818        1.5581673217
 H         -1.7555349495        4.4948294789        1.7536973222
 H         -4.0913779550        3.8427730162        1.3118093550
 H         -4.6014324111        1.7506045506        0.1314422236
 H         -2.4708332538        0.0160845289       -1.9016955932
 C         -4.2002538488       -0.5902922608       -0.7975844645
 C         -5.1946052685       -0.1206349630       -1.8162295370
 C         -4.6843796576       -1.5286066129       -1.8609656621
 H         -5.3490433530       -2.3304026839       -1.5765870191
 H         -3.9857511583       -1.7968513399       -2.6399542470
 H         -6.2147824063        0.0430303841       -1.5032932296
 H         -4.8483707104        0.5666926270       -2.5730959675
 H         -4.5439532707       -0.7624204392        0.2161796168
