  62
        -98.93299312
 C          1.5266368797        1.5565658108        0.4023012398
 C          1.7010642202        0.2179489609        0.8301950298
 C          2.9707887103       -0.4443714987        0.4824721497
 C          3.8861123501        0.2421493716       -0.2245514504
 C          5.2543793502       -0.1968360079       -0.6817050705
 C          5.3666981306       -1.6107466979       -1.2723452005
 C          6.1112482510       -2.5924956976       -0.3656301305
 H          6.5249179612       -3.3930884075       -0.9829621906
 H          6.9522123109       -2.0703167374        0.0955126294
 C          5.2623401913       -3.2432973179        0.7251632495
 H          4.5777275115       -3.9620343181        0.2697046796
 H          5.9360925516       -3.8050014077        1.3765120395
 C          4.4457346411       -2.2752620382        1.5837795596
 H          4.2266272113       -2.7722208482        2.5313584396
 H          5.0313211808       -1.3872644080        1.8196532595
 C          3.1074595509       -1.8682528786        0.9486206597
 H          2.3014265110       -1.9981801989        1.6779380898
 H          2.8752281010       -2.5367237587        0.1143160797
 H          4.3756649807       -1.9922696483       -1.5125315304
 H          5.9194243605       -1.5352626778       -2.2101834506
 H          5.5530446098        0.5421272021       -1.4287381506
 H          5.9483915602       -0.0890617177        0.1558187294
 O          3.6762662796        1.5284470015       -0.6198963504
 C          2.5034484394        2.2176598811       -0.3418524204
 O          2.4807679189        3.3703130611       -0.8079304804
 O          0.8241396204       -0.4023191894        1.4909287399
 C          0.2061529595        2.2114092604        0.7652595299
 C         -0.8336493705        1.8792678400       -0.2745192100
 C         -0.5877232307        2.0862964001       -1.6288972701
 C         -1.5470008707        1.7626045397       -2.5701841700
 C         -2.7562542904        1.2101505493       -2.1835628199
 C         -3.0091760903        0.9932318093       -0.8344203198
 C         -2.0513240903        1.3398378596        0.1102259601
 H         -2.2618764501        1.1667519996        1.1545542701
 N         -4.2317413200        0.4456968089       -0.4136677497
 S         -4.2689531595       -0.7899876911        0.7168583303
 O         -5.6326890594       -1.2699175016        0.6717772205
 O         -3.8090729696       -0.3029232409        1.9912133803
 C         -3.1749787191       -2.0403918608        0.0688016003
 C         -1.8246342991       -2.0005302503        0.3499785801
 C         -0.9977817989       -2.9568480600       -0.2194610899
 C         -1.5264049286       -3.9298097902       -1.0521196098
 C         -2.8868217886       -3.9572631907       -1.3222819097
 C         -3.7185559789       -3.0025209110       -0.7620013497
 H         -4.7822809689       -2.9925298313       -0.9371670796
 H         -3.2985030384       -4.7172393109       -1.9667666796
 H         -0.8759325784       -4.6710869200       -1.4892350199
 H          0.0575857611       -2.9199674097        0.0005042100
 H         -1.4157607693       -1.2440592602        1.0005073501
 H         -4.8765763000        0.2493856286       -1.1659974196
 H         -3.5004542504        0.9505897190       -2.9210164898
 H         -1.3484212408        1.9336388497       -3.6174387800
 H          0.3603828491        2.5069241204       -1.9304459602
 H         -0.1061414003        1.7229815003        1.7029801899
 C          0.3125551490        3.7016627604        1.0507253798
 C         -0.2712345914        4.7584813002        0.1668912998
 C         -0.9048699012        4.4603243200        1.4905182299
 H         -0.8069393614        5.1798847701        2.2892387199
 H         -1.8463080210        3.9304380497        1.4867039000
 H          0.2877821582        5.6741958104        0.0503213098
 H         -0.7903383114        4.4504376400       -0.7267790401
 H          1.2458082990        3.9537048008        1.5435731397
