  62
        -98.94597185
 C         -1.5448755904       -1.2970637002        0.4472789597
 C         -1.4759986801       -0.1790350206       -0.4195002008
 C         -2.2632526600        0.9931854997       -0.0082764916
 C         -2.9263149803        0.9664489004        1.1620023783
 C         -3.8091513503        2.0675285507        1.6727118375
 C         -5.2650309802        1.8594495607        1.2318602673
 C         -5.4225616899        1.5629364600       -0.2596074926
 H         -4.9639644900        0.5964358898       -0.4809745420
 H         -6.4917351799        1.4636554500       -0.4594912129
 C         -4.8255297895        2.6315117994       -1.1860730230
 H         -4.6780488396        3.5598643897       -0.6330878834
 H         -5.5407152393        2.8406531291       -1.9843989833
 C         -3.5121925494        2.2264536289       -1.8581800525
 H         -3.6315861394        1.2502488587       -2.3345004220
 H         -3.2980912291        2.9517487585       -2.6474208428
 C         -2.2828553296        2.1697170892       -0.9422012922
 H         -1.3989666295        2.0558063388       -1.5755334519
 H         -2.1967015697        3.1057237995       -0.3872876226
 H         -5.8349115802        2.7540786909        1.4895462767
 H         -5.6803638705        1.0193769910        1.7935502776
 H         -3.7660212006        2.0667928713        2.7632884975
 H         -3.4409235901        3.0232549005        1.3050852771
 O         -2.9033268506       -0.0994874492        2.0041008688
 C         -2.2339539207       -1.2630757595        1.6583616196
 O         -2.3134586610       -2.1754815390        2.5071239200
 H          0.7816814893       -1.1316414499        1.6020285002
 C          1.3194506995       -1.5399891404        0.7545131606
 C          0.6348493896       -2.3274011307       -0.1631415992
 C          1.3383497998       -2.8488527914       -1.2407372088
 C          2.6869392999       -2.5771665216       -1.3961479886
 C          3.3624312098       -1.7872776712       -0.4848026188
 C          2.6685335196       -1.2634957506        0.5988805608
 N          3.3432311194       -0.4578274102        1.5374958505
 S          4.2012602297        0.8595692994        0.9592127401
 O          5.3962074498        0.3932727389        0.3023813806
 O          4.3992256695        1.7130620799        2.1091091297
 C          3.1209504101        1.6485100189       -0.2179014206
 C          2.1434275501        2.4964259793        0.2630245188
 C          1.2694991604        3.0884497290       -0.6328481917
 C          1.3786324007        2.8121760483       -1.9868384716
 C          2.3599837807        1.9524615879       -2.4528303409
 C          3.2430938904        1.3637535083       -1.5624303204
 H          4.0258245304        0.6989194280       -1.8879057999
 H          2.4371217209        1.7356465174       -3.5059193608
 H          0.6943336509        3.2709581780       -2.6832069920
 H          0.5043253804        3.7572583992       -0.2726368023
 H          2.0941601999        2.6904213198        1.3229554487
 H          2.7578032393       -0.1718211698        2.3090470202
 H          4.4117920698       -1.5656148214       -0.5924231887
 H          3.2199896300       -2.9873105721       -2.2403325582
 H          0.8303567099       -3.4650890617       -1.9639618786
 C         -0.8340012805       -2.5837562404        0.0698198206
 H         -0.9292854008       -3.2524397900        0.9382244709
 C         -1.5296648203       -3.2223499609       -1.1152622993
 C         -1.5340905504       -4.7115015310       -1.2804884486
 C         -2.7894527304       -3.9981045807       -0.8797237392
 H         -3.5902198102       -3.9151371509       -1.5992753995
 H         -3.1298232407       -4.0911426901        0.1417255107
 H         -1.0261931007       -5.3000032707       -0.5313950581
 H         -1.4764047502       -5.1210164415       -2.2777387683
 H         -1.4808763200       -2.6065981314       -2.0061059996
 O         -0.7999380798       -0.1613415112       -1.4790700306
