  62
        -98.93805833
 C          1.9179895996        0.4760745665       -0.6242069974
 C          3.0281374426        1.2298703728       -0.1747056957
 C          4.3485066406        0.5901877201       -0.2941076160
 C          4.4344182005       -0.6500731729       -0.8049335695
 C          5.6692210598       -1.4775453209       -1.0626214724
 C          6.7653426849       -1.4734899425        0.0111402414
 C          6.2572615900       -1.3553371771        1.4553981686
 H          5.1752617167       -1.4958681782        1.4837797520
 H          6.7044565840       -2.1503936227        2.0549724519
 C          6.6160621345       -0.0175040857        2.1065182051
 H          7.6485151327        0.2306128954        1.8508702919
 H          6.5666268055       -0.1310987191        3.1921375169
 C          5.7120748609        1.1563932204        1.7326904489
 H          4.7241657688        1.0195438957        2.1804635148
 H          6.1390422281        2.0620861928        2.1699446968
 C          5.5123262525        1.3849229607        0.2254189036
 H          5.2490994777        2.4357317993        0.0773436317
 H          6.4232751117        1.1744819055       -0.3294208903
 H          7.4664804499       -0.6638758897       -0.1862704784
 H          7.3217169223       -2.4052538758       -0.1043994363
 H          5.3014707031       -2.4964865062       -1.2062483867
 H          6.1001146386       -1.1549532523       -2.0150763941
 O          3.3356426615       -1.3460868892       -1.2138219725
 C          2.0576749646       -0.8135675014       -1.1338725242
 O          1.1617968027       -1.5759701137       -1.5430881214
 H         -1.6745513921       -0.5157149526       -1.0349766866
 C         -1.3891625219       -0.4809376371        0.0022391991
 C         -0.3086273900        0.2808235336        0.4158313798
 C          0.0435118009        0.2661533163        1.7642974911
 C         -0.6627472830       -0.4986078728        2.6710058586
 C         -1.7419337150       -1.2590261194        2.2538530701
 C         -2.1013946250       -1.2534433290        0.9118131444
 N         -3.1744868543       -2.0398919779        0.4646752988
 S         -4.3110207711       -1.4466366500       -0.6046651509
 O         -5.3772646906       -2.4233068860       -0.5728619675
 O         -3.7167429313       -1.1897293874       -1.8907246929
 C         -4.8698851015        0.0755731222        0.1382583966
 C         -5.8955929181        0.0185733808        1.0621017919
 C         -6.3006316480        1.1859242393        1.6882855553
 C         -5.6696158756        2.3838810789        1.3882823668
 C         -4.6403450176        2.4236844648        0.4605357286
 C         -4.2331253888        1.2599196998       -0.1730299508
 H         -3.4398412952        1.2545895483       -0.9018593892
 H         -4.1514849399        3.3557896290        0.2259828594
 H         -5.9829825628        3.2926293369        1.8775669604
 H         -7.1037241717        1.1585111793        2.4070210699
 H         -6.3648488661       -0.9320736180        1.2573131064
 H         -3.6196576185       -2.5866871934        1.1870303536
 H         -2.2922512607       -1.8637945737        2.9586075816
 H         -0.3754488363       -0.5028491255        3.7115913024
 H          0.8899361501        0.8574055441        2.0860607114
 C          0.5334135926        1.0957454084       -0.5331401989
 H          0.6920467515        2.0876011367       -0.0858386942
 C         -0.0715805222        1.2758756517       -1.9082127145
 C         -1.1206779071        2.3230436297       -2.1283209432
 C          0.2569906803        2.5128380019       -2.6871821179
 H          0.3997430036        2.4267590405       -3.7539388920
 H          0.9043885538        3.2385625534       -2.2169474555
 H         -1.9269183398        2.1075984179       -2.8140747274
 H         -1.4051732413        2.9276736311       -1.2802066871
 H         -0.1522106068        0.3487124762       -2.4644456344
 O          2.9228419564        2.3931925994        0.2974372353
