  62
        -98.93734642
 C          1.9288780729        1.3968705667        0.0053229577
 C          2.5691526952        0.6992165854        1.0559831956
 C          3.7625687531       -0.0728487236        0.6861098496
 C          4.1752357170       -0.0854566333       -0.5943824803
 C          5.4009066852       -0.7711616991       -1.1383100970
 C          5.4112905096       -2.3105896645       -1.0702096733
 C          6.0958351574       -2.8845825449        0.1765842030
 H          6.6781011683       -3.7609704653       -0.1151634095
 H          6.8061296543       -2.1494126628        0.5568395347
 C          5.1620007023       -3.3259197243        1.3076202301
 H          4.7208556410       -4.2916262757        1.0498329832
 H          5.7678454006       -3.4708579908        2.2046772170
 C          4.0137802376       -2.3712017072        1.6348634434
 H          3.2418042292       -2.4501978229        0.8650470282
 H          3.5526229453       -2.7001223882        2.5684659920
 C          4.4235224192       -0.8904888078        1.7576414752
 H          5.5061637857       -0.7857151506        1.7076199482
 H          4.0818510084       -0.4880552594        2.7133986455
 H          4.3915051995       -2.6859717367       -1.1537196449
 H          5.9558577312       -2.6612132451       -1.9483835911
 H          6.2795333802       -0.3805860147       -0.6198150697
 H          5.4653402370       -0.4616005567       -2.1834500519
 O          3.5195786351        0.5869956573       -1.5794093411
 C          2.3762413374        1.3269701052       -1.3142043966
 O          1.8693376270        1.8638611925       -2.3163080693
 O          2.1622376369        0.7204836097        2.2495749711
 C          0.6865090795        2.2125911885        0.3155271561
 C         -0.5022541668        1.6284976719       -0.4080016196
 C         -1.3750093150        2.3775409873       -1.1851021279
 C         -2.4360234670        1.7674069077       -1.8331527553
 C         -2.6562999226        0.4082744510       -1.7133694260
 C         -1.8018929487       -0.3471610067       -0.9189001427
 C         -0.7419283700        0.2660306834       -0.2696440254
 H         -0.0748399926       -0.3246265933        0.3461597676
 N         -2.0224359671       -1.7264572130       -0.7756184234
 S         -3.5900819822       -2.2707336378       -0.5699904244
 O         -3.4622824069       -3.5234387214        0.1410580518
 O         -4.2530976590       -2.3386859143       -1.8484700321
 C         -4.3839714027       -1.0471710488        0.4574852480
 C         -3.8542585492       -0.8083186241        1.7101917466
 C         -4.4388578485        0.1582795451        2.5118821406
 C         -5.5378023541        0.8663729782        2.0494703550
 C         -6.0612358471        0.6109567863        0.7917548215
 C         -5.4794513487       -0.3538774056       -0.0151450246
 H         -5.8526834082       -0.5830670863       -0.9999492634
 H         -6.9170049948        1.1614362774        0.4357908236
 H         -5.9879506545        1.6207620353        2.6751485058
 H         -4.0329196270        0.3571112805        3.4908046056
 H         -3.0019706096       -1.3790630480        2.0431966782
 H         -1.3830545128       -2.1852259474       -0.1444442574
 H         -3.4642621166       -0.0824927921       -2.2310072082
 H         -3.0984373427        2.3593722016       -2.4458308330
 H         -1.2185967483        3.4375753482       -1.2953713850
 H          0.5211039643        2.0882598635        1.3960927301
 C          0.9205443117        3.6793479529        0.0249291042
 C          0.1543341704        4.7264389742        0.7750960144
 C          1.6116900388        4.5199472088        1.0550304522
 H          2.3147912896        5.2684606561        0.7217327213
 H          1.8940472099        4.0391121159        1.9803197216
 H         -0.1432933039        5.6220656194        0.2511787385
 H         -0.5555720483        4.3910732199        1.5156907609
 H          1.1629061460        3.8648644160       -1.0152289013
