  62
        -98.93787040
 C          1.9505961238       -1.3768097660       -0.0964259612
 C          2.2630239768       -0.3796426385        0.8573708484
 C          3.6442136823        0.1362343606        0.8376634541
 C          4.5257066404       -0.3465201939       -0.0534087931
 C          5.9825356892        0.0045412104       -0.2223201308
 C          6.3686009188        1.4885608863       -0.1501586691
 C          5.3066624428        2.4637963651       -0.6788939851
 H          5.7754856204        3.1469717529       -1.3896320596
 H          4.5299987923        1.9177432400       -1.2174637075
 C          4.6649967603        3.3061621329        0.4264700675
 H          5.4480496608        3.6428105375        1.1095042076
 H          4.2200566900        4.1966663799       -0.0243783008
 C          3.5669291032        2.6093825577        1.2289804758
 H          2.6822667277        2.4718302240        0.6006923815
 H          3.2773849340        3.2725809209        2.0479033246
 C          3.9440643037        1.2379832606        1.8133826074
 H          4.9824844486        1.2191683448        2.1345346515
 H          3.3071751834        1.0559959975        2.6831408308
 H          6.6113964467        1.7531408023        0.8781313370
 H          7.2870415440        1.6032499093       -0.7282965885
 H          6.5547269007       -0.5503504608        0.5269330565
 H          6.2585423832       -0.3978566719       -1.1999772907
 O          4.1855033231       -1.3099855255       -0.9544570843
 C          2.9097251002       -1.8377336061       -1.0040519910
 O          2.7526249074       -2.7071173823       -1.8843491341
 H         -0.3897678243        0.3724398483        0.5930776598
 C         -0.8011470791        0.0794244800       -0.3614117303
 C         -0.3928851577       -1.1147783572       -0.9386625648
 C         -0.9188068722       -1.4682298885       -2.1755373165
 C         -1.8289589184       -0.6457821565       -2.8173230452
 C         -2.2337076604        0.5435041414       -2.2383713238
 C         -1.7078060531        0.9073821122       -1.0056146370
 N         -2.1283090919        2.1099979155       -0.3983272525
 S         -3.7762267265        2.2103547255       -0.1018955522
 O         -4.4594852445        2.5369776030       -1.3284103388
 O         -3.9245299049        3.1589935147        0.9787687630
 C         -4.2252673254        0.5674413501        0.4278440691
 C         -3.8103887740        0.1520959901        1.6774746532
 C         -4.0793813870       -1.1469615930        2.0752264773
 C         -4.7468069611       -2.0070268885        1.2167159908
 C         -5.1569860603       -1.5744287458       -0.0344698033
 C         -4.8928753713       -0.2751789862       -0.4371150139
 H         -5.1943354509        0.1017219324       -1.4004525797
 H         -5.6765678222       -2.2456718337       -0.6988970301
 H         -4.9491069334       -3.0204849598        1.5257685376
 H         -3.7630604477       -1.4834939030        3.0497077150
 H         -3.2956998149        0.8487181454        2.3200675196
 H         -1.6136663851        2.3178025675        0.4463232792
 H         -2.9469750070        1.1946254994       -2.7176652847
 H         -2.2277664227       -0.9340424977       -3.7779180978
 H         -0.6002077000       -2.3909538595       -2.6384287645
 C          0.5781543162       -2.0215119749       -0.2210994418
 H          0.7295447431       -2.9105802946       -0.8471974273
 C          0.0063801913       -2.4658554906        1.1124051376
 C         -1.0849960705       -3.4915080060        1.1251627195
 C          0.2880065513       -3.8510245114        1.6069770229
 H          0.4448286386       -3.9976486142        2.6651174305
 H          0.8980075618       -4.4897813787        0.9845625788
 H         -1.4083141064       -3.8878335254        0.1747750324
 H         -1.8758954088       -3.3906904932        1.8516187309
 H         -0.0349645361       -1.6749965517        1.8489829664
 O          1.4502689856        0.0744514704        1.7074282001
