  62
        -98.93511207
 C          1.8024456155        0.7767596238        0.0839035014
 C          2.8851027384        0.6311477461        0.9900398795
 C          4.0088792562       -0.2090221013        0.5521163443
 C          3.9485258944       -0.7995934133       -0.6547571879
 C          5.0395193762       -1.6183002478       -1.2842462144
 C          6.1435269604       -0.6917856023       -1.8325128235
 C          7.4913375347       -0.8300245634       -1.1244345633
 H          7.9766399910       -1.7485935043       -1.4610712284
 H          8.1154891444        0.0078232496       -1.4424176020
 C          7.4404697424       -0.8611302763        0.4060729867
 H          7.1486433633       -1.8567528147        0.7437539258
 H          8.4604412116       -0.6992061844        0.7611898083
 C          6.5187901429        0.1714171416        1.0680058880
 H          6.3652151054        1.0275381977        0.4107118012
 H          7.0168425325        0.5449178360        1.9650400570
 C          5.1520143103       -0.3810788903        1.5136684063
 H          5.2531486133       -1.4383645333        1.7747036235
 H          4.8383801332        0.1506698706        2.4169303358
 H          6.2931573968       -0.8927545084       -2.8944219559
 H          5.7943902916        0.3399881168       -1.7543198199
 H          5.4486693677       -2.3106737549       -0.5517724413
 H          4.5888856135       -2.1929500624       -2.0938245757
 O          2.8901893249       -0.6520705452       -1.4901537814
 C          1.7901346712        0.1282373294       -1.1510702729
 O          0.9044091345        0.1392620969       -2.0262243515
 H         -0.5887273845       -0.5271805096       -0.4410505537
 C         -0.9867601709       -0.2337841058        0.5192573031
 C         -0.4528122414        0.8712155677        1.1685128093
 C         -0.9820641799        1.2369742985        2.4003642275
 C         -2.0165850560        0.5121259457        2.9671806861
 C         -2.5461264189       -0.5878033373        2.3167527716
 C         -2.0249314461       -0.9603148324        1.0840832163
 N         -2.5614764320       -2.0730529304        0.4040404952
 S         -4.2019276815       -2.0244570598        0.0610469355
 O         -4.9426201749       -2.2123849392        1.2829654581
 O         -4.4108583695       -3.0136049675       -0.9710971002
 C         -4.4800690502       -0.3839055007       -0.5775935735
 C         -4.8661000277        0.6262397157        0.2807242930
 C         -4.9982729307        1.9123631218       -0.2179102007
 C         -4.7460334327        2.1644872450       -1.5573941070
 C         -4.3653363458        1.1375739270       -2.4077135428
 C         -4.2226490013       -0.1488104829       -1.9136532282
 H         -3.9267063161       -0.9738502893       -2.5419678276
 H         -4.1694135856        1.3350542847       -3.4492962753
 H         -4.8444151652        3.1670828049       -1.9417161566
 H         -5.2933277101        2.7132407773        0.4404106285
 H         -5.0610106986        0.3879892656        1.3130972425
 H         -2.0475917972       -2.3008925320       -0.4356657835
 H         -3.3540357693       -1.1625030352        2.7400318908
 H         -2.4137524950        0.8047956776        3.9270604490
 H         -0.5679787773        2.0880991484        2.9205446874
 C          0.6581054247        1.6682030735        0.5347927223
 H          1.0967171677        2.3015731655        1.3218246562
 C          0.1575991184        2.5974354122       -0.5637557025
 C         -1.1517709679        2.4277578275       -1.2674388944
 C         -0.9707464395        3.5481293795       -0.2909532488
 H         -0.8971641147        4.5578786089       -0.6645452900
 H         -1.4713542018        3.4611084886        0.6613427543
 H         -1.1822757552        2.6515054952       -2.3224777033
 H         -1.7841326447        1.6014011164       -0.9843082118
 H          0.9771433588        2.9756402631       -1.1671738098
 O          2.9099653546        1.1900979096        2.1193883715
