  62
        -98.93647605
 C          1.8166357941       -0.2488541320        0.3467023505
 C          2.8638861829       -1.0784556961       -0.1133919658
 C          4.2129360705       -0.4845797570       -0.1511002727
 C          4.3695217126        0.7992411230        0.2190462694
 C          5.6339209325        1.6194889915        0.2696621172
 C          6.5900030863        1.4896569665       -0.9261987657
 C          7.8852125870        0.7475411696       -0.5918971287
 H          8.6575195414        1.0564718041       -1.2998752747
 H          8.2144505377        1.0547430575        0.4029513236
 C          7.7933784648       -0.7765267293       -0.6452243636
 H          8.7302119607       -1.1777493797       -0.2513906603
 H          7.7151723912       -1.0974486952       -1.6862571669
 C          6.6302258235       -1.3897926870        0.1369727287
 H          6.5004211721       -0.8801866021        1.0910515759
 H          6.8898604208       -2.4263197231        0.3625568963
 C          5.3042982421       -1.3985341141       -0.6383377547
 H          5.4900606400       -1.1939159456       -1.6966732472
 H          4.8628949545       -2.3992646830       -0.5996214813
 H          6.0799138357        1.0068213756       -1.7581851401
 H          6.8542086138        2.4973583617       -1.2510617673
 H          5.2954130213        2.6538495681        0.3637265101
 H          6.1639530875        1.3812479867        1.1952876702
 O          3.3259493639        1.5656395418        0.6496067183
 C          2.0346360452        1.0727558648        0.7318410982
 O          1.1963939297        1.8936398433        1.1495541949
 O          2.6815915344       -2.2710675403       -0.4801673433
 C          0.4096301798       -0.8154390513        0.4224309541
 C         -0.5168857799        0.0093223725       -0.4349868551
 C         -0.2000598842        0.1757963729       -1.7819168549
 C         -0.9934890467        0.9490555119       -2.6051437538
 C         -2.1292545479        1.5641119886       -2.1066014413
 C         -2.4591973922        1.3995696861       -0.7676834526
 C         -1.6588543306        0.6191011230        0.0579240845
 H         -1.9315078667        0.5262991961        1.0951732307
 N         -3.5976519200        2.0254813396       -0.2347014939
 S         -4.6406483172        1.1807376908        0.7603139771
 O         -5.8493688381        1.9749663521        0.7737026467
 O         -4.0293435987        0.9297692282        2.0397179734
 C         -4.9291004979       -0.3507798554       -0.1063182042
 C         -4.2219918857       -1.4819058833        0.2458634517
 C         -4.4097916398       -2.6429884163       -0.4876376981
 C         -5.2944668101       -2.6521553282       -1.5546634121
 C         -6.0012785350       -1.5078876342       -1.8929460913
 C         -5.8153062328       -0.3435669822       -1.1661674942
 H         -6.3529010003        0.5637360674       -1.3892918119
 H         -6.6925236787       -1.5199763762       -2.7202005949
 H         -5.4356000369       -3.5575990577       -2.1235464201
 H         -3.8630377469       -3.5343224703       -0.2239660057
 H         -3.5460834391       -1.4368821756        1.0835006014
 H         -4.1120275373        2.5869380188       -0.8974985535
 H         -2.7468125313        2.1771726256       -2.7453059800
 H         -0.7292112068        1.0747222329       -3.6442607159
 H          0.6893586461       -0.3023378635       -2.1692125469
 H          0.4792836326       -1.8227123166       -0.0139840770
 C         -0.0308879742       -0.9404505510        1.8648715205
 C         -1.0091647053       -2.0029466558        2.2640643878
 C          0.4301506933       -2.1207286503        2.6645253005
 H          0.6949754310       -1.9695986763        3.7002572266
 H          1.0431524448       -2.8524501352        2.1588337804
 H         -1.7392577992       -1.7704978983        3.0255694041
 H         -1.3666746225       -2.6651137599        1.4898553970
 H         -0.0773562582        0.0153456705        2.3754879500
