  62
        -98.93675931
 C          2.4189037324        1.1512995084        0.1529334489
 C          2.4756627855       -0.0532950994       -0.5910286455
 C          3.8262422822       -0.5350525470       -0.9260707501
 C          4.9011245901        0.1659882440       -0.5247288587
 C          6.3276234522       -0.2415098896       -0.7509182446
 C          6.8567497972       -1.0794691848        0.4215713051
 C          5.9295417744       -2.2239304392        0.8310539919
 H          6.4187423356       -2.7628726369        1.6453191610
 H          5.0032571101       -1.8066897261        1.2328894423
 C          5.5923192411       -3.2043674631       -0.3009623889
 H          5.6787300938       -4.2235356270        0.0815050060
 H          6.3162354081       -3.0993450549       -1.1098294947
 C          4.1778922655       -3.0597058339       -0.8658739954
 H          3.9725259171       -3.9294345700       -1.4956275662
 H          3.4520291746       -3.0693612888       -0.0486394793
 C          3.9243316825       -1.8091272817       -1.7171260347
 H          4.6918027102       -1.7263164465       -2.4894200043
 H          2.9540122641       -1.9327177922       -2.2071789693
 H          7.8335078819       -1.4808408269        0.1456659911
 H          6.9902625710       -0.4221326414        1.2838666040
 H          6.9329725474        0.6617844399       -0.8429858655
 H          6.3953374679       -0.8088152771       -1.6770387010
 O          4.8072077594        1.3153807055        0.1921037248
 C          3.5735191705        1.8218652823        0.5651076372
 O          3.6353223022        2.8574062716        1.2576354998
 O          1.4651750554       -0.7043018688       -0.9616150284
 C          1.0966572069        1.7552815627        0.5934186297
 C          0.1792045000        0.6791697244        1.1197705523
 C          0.5788553732       -0.0480396517        2.2386734508
 C         -0.2272520410       -1.0393070546        2.7625323821
 C         -1.4592258979       -1.3134598759        2.1948535464
 C         -1.8648010819       -0.5974345922        1.0754459894
 C         -1.0469367193        0.3903461197        0.5443313054
 H         -1.3788602070        0.9131255059       -0.3369017266
 N         -3.0961257106       -0.8706617623        0.4586086231
 S         -3.9538058437        0.4070799934       -0.2309201094
 O         -3.4733803109        0.6365887195       -1.5699562275
 O         -3.9386716756        1.5495927090        0.6558905721
 C         -5.5887559861       -0.3034353925       -0.2956710662
 C         -6.5043415915        0.0046109216        0.6926891344
 C         -7.7617160277       -0.5770548539        0.6467226208
 C         -8.0792769977       -1.4544711129       -0.3790903180
 C         -7.1499495871       -1.7535491299       -1.3645469098
 C         -5.8915402716       -1.1745935493       -1.3253503718
 H         -5.1403046770       -1.3695991524       -2.0730066966
 H         -7.4013256534       -2.4337648398       -2.1622811743
 H         -9.0582656168       -1.9058079268       -0.4127829111
 H         -8.4874060898       -0.3440277305        1.4091922052
 H         -6.2154940847        0.6982016001        1.4659565505
 H         -3.6925567573       -1.4702636733        1.0119074184
 H         -2.0932082200       -2.0842746694        2.6062559201
 H          0.1003245273       -1.5980240623        3.6266316057
 H          1.5391081141        0.1725067482        2.6866255428
 H          1.3523204277        2.4170401525        1.4386962673
 C          0.4345630819        2.6348251324       -0.4565269890
 C          1.2491962522        3.4150688333       -1.4432127697
 C          0.4064860901        2.2673959836       -1.9081713931
 H         -0.4934336845        2.4764101545       -2.4689731378
 H          0.8953084637        1.3515514968       -2.2006258251
 H          0.9349052876        4.4188801318       -1.6863510843
 H          2.3216036195        3.2860303205       -1.4187964556
 H         -0.4506497482        3.1303972368       -0.0662594428
