  62
        -98.93652829
 C         -1.9671970131       -0.1132487985        0.2548045683
 C         -3.1441707795       -0.8451156284       -0.0416714315
 C         -4.2881729464       -0.0444640228       -0.5067577639
 C         -4.1621708537        1.2829750058       -0.6764242994
 C         -5.2303767845        2.2206960015       -1.1701577102
 C         -6.1967210529        2.6977714097       -0.0772658327
 C         -7.1906872530        1.6462282018        0.4176711326
 H         -7.7047260741        1.2032948841       -0.4359337325
 H         -7.9408581136        2.1699951751        1.0135307398
 C         -6.5653011104        0.5378600641        1.2761647622
 H         -7.1824144548        0.3711088006        2.1620195117
 H         -5.5823603906        0.8602642786        1.6276293827
 C         -6.4193935432       -0.8078885720        0.5657127033
 H         -7.4084389142       -1.2056389391        0.3276702391
 H         -5.9318486065       -1.5064742728        1.2506319047
 C         -5.5909738762       -0.7536563420       -0.7243706356
 H         -6.1610092029       -0.2701621920       -1.5173347396
 H         -5.3643781062       -1.7783130581       -1.0291348107
 H         -6.7633393356        3.5369035851       -0.4874499269
 H         -5.6124692923        3.0722814435        0.7664532463
 H         -4.7137959880        3.0924600383       -1.5773836788
 H         -5.7940126248        1.7443851228       -1.9728747798
 O         -2.9983167595        1.9418961960       -0.4289147925
 C         -1.8903029261        1.2677421583        0.0543418539
 O         -0.9007753052        1.9983802456        0.2657151618
 H          1.9471249066       -0.3403226671        0.5833219222
 C          1.5662838639       -0.8665383649       -0.2779753095
 C          0.2143779852       -1.1716590288       -0.3423760912
 C         -0.2695587660       -1.8616008914       -1.4482886828
 C          0.5907585689       -2.2406701822       -2.4625077293
 C          1.9407842578       -1.9493399887       -2.3878601508
 C          2.4364758896       -1.2579019769       -1.2864423717
 N          3.7973455235       -0.9391704735       -1.2240989214
 S          4.7120935276       -0.7059390007        0.1519932377
 O          5.9787549094       -1.3539281879       -0.1110156011
 O          4.0076166203       -1.1396360625        1.3337288852
 C          4.9790621757        1.0574780990        0.2058847859
 C          3.9200292429        1.9244737763        0.0222203628
 C          4.1539077409        3.2898020221        0.0838613128
 C          5.4333908045        3.7653251910        0.3265881732
 C          6.4873370883        2.8826659441        0.5057666109
 C          6.2598652139        1.5171930902        0.4454366599
 H          7.0507153392        0.7957989473        0.5715840898
 H          7.4826817492        3.2527726966        0.6918380320
 H          5.6079946937        4.8286343742        0.3740317730
 H          3.3303075624        3.9718859614       -0.0571999042
 H          2.9299212853        1.5419197345       -0.1687907598
 H          4.3577587368       -1.3115324669       -1.9751087732
 H          2.6100999240       -2.2514472800       -3.1789404571
 H          0.2073010368       -2.7768382547       -3.3176218039
 H         -1.3192551928       -2.1080134548       -1.4979385688
 C         -0.6961727745       -0.7548100125        0.7842374768
 H         -0.1787989355        0.0427356076        1.3423001179
 C         -0.9575173945       -1.8879528731        1.7675505646
 C         -0.6705059682       -3.3247867821        1.4658137894
 C          0.1959528119       -2.5791121343        2.4332967579
 H          0.1190711552       -2.8131318769        3.4846417606
 H          1.1943437786       -2.3120027176        2.1167307858
 H         -0.2605028639       -3.5712521375        0.4989854780
 H         -1.3610409911       -4.0626126745        1.8447706168
 H         -1.8272805688       -1.6933852807        2.3868468229
 O         -3.2571372124       -2.0925725747        0.0615815968
