  62
        -98.93932844
 C          1.4997801585        0.7148294073       -0.5055653924
 C          2.7908859452        1.2801452924       -0.5943654178
 C          3.9271109438        0.3445327460       -0.5159065729
 C          3.6884202386       -0.9711151347       -0.3579247175
 C          4.6322979895       -2.1538272694       -0.2858923340
 C          6.1311827305       -1.9480134143       -0.0840442496
 C          6.5214351120       -1.3983875063        1.2877650755
 H          6.3358056965       -2.1719479983        2.0372461764
 H          7.5940502224       -1.1926093864        1.2817182601
 C          5.7767903890       -0.1414319187        1.7305749299
 H          6.1420795938        0.1310840684        2.7245599577
 H          4.7118271817       -0.3615933631        1.8288493853
 C          5.9503743241        1.0747847652        0.8231619416
 H          7.0132827008        1.2855114697        0.6896081060
 H          5.5017798121        1.9324758733        1.3320478690
 C          5.2938451237        0.9651015358       -0.5637997051
 H          5.1560394468        1.9786738206       -0.9519359708
 H          5.9342588271        0.4333176919       -1.2634196560
 H          6.5359275050       -1.3233626664       -0.8748679850
 H          6.5973604317       -2.9315253285       -0.1890169092
 H          4.4824987943       -2.7084940671       -1.2186790618
 H          4.2483223160       -2.7921707445        0.5161020685
 O          2.4194083416       -1.4696314764       -0.2782771181
 C          1.2998857682       -0.6547814490       -0.3402805044
 O          0.2171005734       -1.2576703408       -0.2379538413
 O          2.9912768991        2.5174145164       -0.7350243755
 C          0.2834394821        1.6177271519       -0.5840135268
 C         -0.5798803062        1.4305768369        0.6383716054
 C          0.0141166725        1.4497806110        1.8982076385
 C         -0.7401580221        1.2535633491        3.0379451883
 C         -2.1021701087        1.0232905667        2.9479825137
 C         -2.7075055580        1.0195245335        1.6978506181
 C         -1.9492072406        1.2373395892        0.5549230846
 H         -2.4486569598        1.2552972570       -0.3980331544
 N         -4.0862226948        0.8095841851        1.5756755612
 S         -4.7471914572        0.1277347208        0.2050090597
 O         -4.7952467528        1.1011414222       -0.8577265742
 O         -6.0306909668       -0.3742343244        0.6492196067
 C         -3.6959625649       -1.2363324307       -0.2567668158
 C         -3.2157539066       -1.3154259412       -1.5471043267
 C         -2.4202477952       -2.3915906545       -1.9024965566
 C         -2.1177624480       -3.3644369562       -0.9645305324
 C         -2.6100095676       -3.2724447217        0.3271304489
 C         -3.4083794895       -2.2003684218        0.6875520083
 H         -3.8080012199       -2.1056148912        1.6844026504
 H         -2.3663994627       -4.0293683810        1.0553651314
 H         -1.4880218514       -4.1952637120       -1.2405830948
 H         -2.0303077499       -2.4625329107       -2.9057924152
 H         -3.4685095520       -0.5323003402       -2.2449566301
 H         -4.5588505359        0.5192425302        2.4180617458
 H         -2.6909031923        0.8540888510        3.8364164530
 H         -0.2636404273        1.2685065022        4.0067043927
 H          1.0807854910        1.6138852586        1.9698894788
 H          0.6744973594        2.6460889895       -0.5827513443
 C         -0.4587356632        1.3766048990       -1.8818601374
 C         -1.2722407772        2.4703274650       -2.5045659335
 C          0.0181066909        2.0432109156       -3.1357852503
 H         -0.0172374432        1.4880202567       -4.0610809043
 H          0.8701540041        2.7022559433       -3.0544775147
 H         -2.2012531039        2.2125250600       -2.9913706938
 H         -1.2979027155        3.4234552550       -1.9979980334
 H         -0.8229503966        0.3579441377       -1.9633190599
