  62
        -98.94358613
 C          1.7283614048       -1.2676519841       -0.0466626121
 C          1.8502951777       -0.0049826130        0.5825009353
 C          3.2219258483        0.4147467038        0.9061167618
 C          4.2492017437       -0.4047692063        0.6174036297
 C          5.6966591942       -0.0762249135        0.8398376173
 C          6.3121378649        0.5831828652       -0.4024065675
 C          5.4816478056        1.7370240629       -0.9647562591
 H          6.0269009571        2.1431854622       -1.8195839151
 H          4.5357469191        1.3440929973       -1.3448445084
 C          5.1945767390        2.8615699081        0.0399477428
 H          5.8915360748        2.7973478778        0.8763690636
 H          5.3661148375        3.8215551439       -0.4516085168
 C          3.7612658457        2.8841878169        0.5744662551
 H          3.0575564757        2.8528230541       -0.2613356576
 H          3.6087853471        3.8329620865        1.0957302337
 C          3.3965218339        1.7601428100        1.5523367384
 H          4.1382207081        1.7120595512        2.3520908180
 H          2.4267182763        2.0063179924        1.9941405323
 H          7.3100778052        0.9423770487       -0.1443587801
 H          6.4154865489       -0.1755590610       -1.1817247927
 H          5.7861958974        0.5866308785        1.6981643528
 H          6.2319763372       -1.0035666465        1.0505338829
 O          4.0880139410       -1.6212902919        0.0353255662
 C          2.8298375669       -2.0753535559       -0.3258174332
 O          2.8241382481       -3.1936150395       -0.8803350208
 H         -2.1519764049       -0.6445432408       -0.3141202433
 C         -1.5766949951       -0.2906902452       -1.1512516521
 C         -0.3001260773       -0.7796448625       -1.3722617312
 C          0.4059895765       -0.3248170009       -2.4834059171
 C         -0.1488169543        0.6085899160       -3.3367152244
 C         -1.4162345420        1.1119579642       -3.0996979416
 C         -2.1320863492        0.6604872767       -1.9973385060
 N         -3.3915587405        1.1888996844       -1.7073780124
 S         -4.5017049098        0.4495709126       -0.7162560026
 O         -4.6587784008       -0.9506926439       -1.0355234286
 O         -5.6924366767        1.2605323088       -0.8568354067
 C         -3.8480005944        0.6303342981        0.9305369150
 C         -3.1949652228        1.7958236964        1.2766878985
 C         -2.6934411365        1.9243151190        2.5616771130
 C         -2.8567619393        0.8946831762        3.4752072526
 C         -3.5228662120       -0.2664730396        3.1150611989
 C         -4.0250786694       -0.4015344227        1.8309622204
 H         -4.5387173352       -1.2918042771        1.5032036450
 H         -3.6472199840       -1.0669974865        3.8271038238
 H         -2.4585523575        0.9957614322        4.4726456136
 H         -2.1683497480        2.8226823324        2.8433390379
 H         -3.0738410224        2.5746676740        0.5425025288
 H         -3.7909282069        1.8203609255       -2.3831424444
 H         -1.8444792671        1.8518283563       -3.7583453869
 H          0.4108458858        0.9528819190       -4.1936569169
 H          1.4006223166       -0.7108129037       -2.6637574617
 C          0.3549459684       -1.7759957689       -0.4470891804
 H          0.5223715344       -2.7080153050       -1.0065927533
 C         -0.4644518826       -2.0869785745        0.7882064468
 C         -1.5514214485       -3.1163898207        0.7332817862
 C         -0.2788256916       -3.4084569903        1.4685894692
 H         -0.3014973149       -3.4407248803        2.5473117126
 H          0.4231406529       -4.1001625158        1.0255537062
 H         -1.7226551839       -3.6142475279       -0.2093579493
 H         -2.4502246040       -2.9478597685        1.3066936316
 H         -0.6157721113       -1.2171501199        1.4178586553
 O          0.8703383440        0.7333979741        0.8585528132
