  62
        -98.94560634
 C         -2.1201951012       -0.9706309688       -0.4426699983
 C         -1.5133344308        0.1492123605       -1.0608444589
 C         -2.1695288800        1.4441849110       -0.8355335494
 C         -3.2755078598        1.5174374920       -0.0746311891
 C         -4.0947095990        2.7513944825        0.1925620005
 C         -3.5678339382        3.6304074128        1.3341012200
 C         -2.2955692979        4.4145688819        1.0124764793
 H         -2.4327186178        4.9628085716        0.0797554991
 H         -2.1615512973        5.1508166122        1.8074908489
 C         -1.0303225184        3.5509862112        0.9230753294
 H         -0.2181808680        4.0269441410        1.4781555789
 H         -1.2024865688        2.5833206015        1.4006758299
 C         -0.5171019189        3.3038919603       -0.4948023206
 H         -0.1786924685        4.2453424099       -0.9344473012
 H          0.3445613208        2.6370336398       -0.4121258706
 C         -1.5413729995        2.6638136604       -1.4408748701
 H         -1.0207744799        2.3533244397       -2.3501451901
 H         -2.3082044291        3.3912860907       -1.7082177702
 H         -4.3562873878        4.3433051133        1.5869224198
 H         -3.3939405584        3.0009439831        2.2100035302
 H         -4.1654777589        3.3448903922       -0.7197214498
 H         -5.0952218791        2.4041768932        0.4601018909
 O         -3.8158621802        0.4243538826        0.5271849215
 C         -3.2474683809       -0.8275017278        0.3723606919
 O         -3.8435587613       -1.7345340672        0.9898050925
 O         -0.4893540110        0.0966942696       -1.7926421492
 C         -1.6028325020       -2.3957663992       -0.5760685177
 C         -0.5029053319       -2.6647843793        0.4237160821
 C         -0.6187993823       -3.6982068388        1.3455499426
 C          0.3818094978       -3.9269086790        2.2732497625
 C          1.4985474383       -3.1127789196        2.3149634318
 C          1.6229030586       -2.0728200300        1.3992496713
 C          0.6386371785       -1.8758520799        0.4430009315
 H          0.7427270288       -1.0749966203       -0.2680802489
 N          2.7409829791       -1.2255580007        1.4287382506
 S          2.5698948400        0.4469284894        1.3088224799
 O          3.4044957806        0.9817893894        2.3684585895
 O          1.1829487102        0.8344357002        1.3367723101
 C          3.3470780798        0.8300470582       -0.2488298905
 C          4.7121371799        1.0503833775       -0.2379849509
 C          5.3609578398        1.3310470766       -1.4285431712
 C          4.6374668995        1.3856703564       -2.6105436210
 C          3.2698424194        1.1633863072       -2.6052928106
 C          2.6133121096        0.8809412481       -1.4162469703
 H          1.5482446195        0.7066674787       -1.4009671400
 H          2.7007485892        1.2048291771       -3.5204166505
 H          5.1402126594        1.6045806557       -3.5394776313
 H          6.4247267499        1.5064919360       -1.4319303715
 H          5.2318488602        1.0122797476        0.7051428990
 H          3.4016137992       -1.4498685507        2.1591603806
 H          2.2684037484       -3.2739002196        3.0549920717
 H          0.2827188476       -4.7343089986        2.9831148629
 H         -1.5079579926       -4.3117378183        1.3437252931
 H         -2.4523276123       -3.0421511186       -0.3147906072
 C         -1.1508485326       -2.7484197901       -1.9800346077
 C         -1.1571842635       -4.1847339403       -2.4050925070
 C         -2.1609895031       -3.2291489300       -2.9759031372
 H         -2.0568615532       -2.9194987705       -4.0047750174
 H         -3.1871783431       -3.3097018793       -2.6469095469
 H         -0.3606946238       -4.5355291010       -3.0429664271
 H         -1.5049135337       -4.9172009198       -1.6923168266
 H         -0.3530867923       -2.1169825507       -2.3466136482
