  62
        -98.93974916
 C         -0.8157201579       -1.3878369657       -0.3440944041
 C         -1.7709175382       -1.4234622883        0.6994611307
 C         -2.6837480682       -0.2724243651        0.8279962927
 C         -2.5467867625        0.7547546009       -0.0301741538
 C         -3.3766077278        2.0077046110       -0.1193533932
 C         -4.7462899410        1.7632362958       -0.7754057567
 C         -5.4600672736        0.4916113945       -0.3236365134
 H         -6.3483429560        0.3690443017       -0.9489093512
 H         -4.8126928868       -0.3676794204       -0.5080218168
 C         -5.9123670238        0.4810551293        1.1344945452
 H         -6.4600301580       -0.4504305087        1.2989849233
 H         -6.6066471357        1.3080437161        1.3003047159
 C         -4.7999113692        0.5689558546        2.1809631935
 H         -4.4179163948        1.5832906341        2.2614246350
 H         -5.2453709180        0.3290733179        3.1511478176
 C         -3.6490673923       -0.4129257659        1.9799617374
 H         -3.0280063464       -0.4099918945        2.8849311968
 H         -4.0529571107       -1.4296373687        1.9112452538
 H         -4.5929512615        1.6899882333       -1.8546149117
 H         -5.3820243435        2.6287097036       -0.5817970609
 H         -3.4880806120        2.4498183851        0.8665739832
 H         -2.8169091759        2.7127360828       -0.7374664179
 O         -1.6070150302        0.7555004535       -1.0146495267
 C         -0.7155094678       -0.2880082204       -1.1970531187
 O          0.0871150540       -0.0997510170       -2.1309022076
 H          1.4201238757       -0.1926303826       -0.0494801037
 C          1.9641996980       -1.0309562803        0.3531649822
 C          1.4530831408       -2.3128012296        0.2324401805
 C          2.1903678687       -3.3717407142        0.7537309889
 C          3.3997396403       -3.1452937495        1.3844394389
 C          3.8899476773       -1.8591339859        1.5295421270
 C          3.1614248392       -0.7951594267        1.0128418473
 N          3.6168760849        0.5252593897        1.1280756032
 S          2.5192700038        1.7741072807        1.3144975996
 O          3.3011627052        2.8456619895        1.8995899817
 O          1.3609216932        1.3624149937        2.0759077405
 C          2.0511627623        2.2570968914       -0.3317275046
 C          0.8015416773        2.8120160211       -0.5174920334
 C          0.4409060472        3.2438271694       -1.7827843861
 C          1.3321577074        3.1136045428       -2.8349339855
 C          2.5840549992        2.5557641886       -2.6311712328
 C          2.9535037138        2.1262059908       -1.3673232244
 H          3.9151381066        1.6791878280       -1.1765339552
 H          3.2707655009        2.4472480318       -3.4553172568
 H          1.0437134590        3.4403351541       -3.8216117292
 H         -0.5374941202        3.6673272078       -1.9450753234
 H          0.1298106156        2.8737271195        0.3253741253
 H          4.4424841301        0.6552277166        1.6942541859
 H          4.8229440116       -1.6782847756        2.0408484250
 H          3.9606889666       -3.9762205229        1.7841229077
 H          1.8041922184       -4.3762146335        0.6729806087
 C          0.1291318274       -2.5674998208       -0.4538506921
 H         -0.3660820772       -3.3881698031        0.0850209144
 C          0.3665702459       -3.0074053805       -1.8874478137
 C          0.5919799314       -4.4540839496       -2.2034772462
 C         -0.6932906882       -3.7925066124       -2.5985688664
 H         -0.8750066660       -3.5835024911       -3.6417542630
 H         -1.5857204151       -4.0400670111       -2.0418059070
 H          1.3004156995       -4.7052015821       -2.9776088398
 H          0.5595828612       -5.1621197567       -1.3896540383
 H          0.9097626755       -2.2721683804       -2.4673978510
 O         -1.8731424372       -2.3974481891        1.4969006815
