  62
        -98.94337631
 C         -1.9503509598       -0.8593004292        0.0445130300
 C         -2.2367724796        0.1141919304        1.0292682105
 C         -2.5815788792        1.4516572507        0.5318380311
 C         -2.5656893590        1.6833168214       -0.7936865988
 C         -2.9404847186        2.9848050318       -1.4406848181
 C         -4.4363180486        3.0265906724       -1.7842350383
 C         -5.3479240988        2.6168800420       -0.6275977485
 H         -5.1809362491        1.5617423519       -0.3996893291
 H         -6.3784175487        2.7122556725       -0.9762025986
 C         -5.1619614287        3.4453384913        0.6511367819
 H         -6.1458661487        3.7111340714        1.0431012119
 H         -4.6428843684        4.3755883513        0.4179785024
 C         -4.4176632190        2.7194167006        1.7733105416
 H         -4.8784463993        1.7439456806        1.9480218611
 H         -4.5296572789        3.3035956902        2.6905715719
 C         -2.9149252690        2.5069428403        1.5487902416
 H         -2.4813084492        2.1596122397        2.4916270915
 H         -2.4416840688        3.4557815903        1.2864635421
 H         -4.6173133587        2.3470906628       -2.6201162186
 H         -4.6871743683        4.0385444126       -2.1071408778
 H         -2.6860054285        3.8028087314       -0.7693633477
 H         -2.3604400585        3.0888392721       -2.3591946680
 O         -2.2507522592        0.7321024318       -1.7094329892
 C         -1.9344207496       -0.5598348185       -1.3174090498
 O         -1.6682588397       -1.3318519281       -2.2585556602
 H          0.5436554803       -0.6506628299        0.2601272004
 C          0.7829675800       -1.6632776898       -0.0325559301
 C         -0.2032911302       -2.6404232396        0.0037969393
 C          0.1344978595       -3.9364771395       -0.3667959913
 C          1.4237408595       -4.2358548096       -0.7715816113
 C          2.3995123097       -3.2580544999       -0.8135537408
 C          2.0709825300       -1.9561540900       -0.4488652701
 N          3.0275656403       -0.9318350002       -0.5306881595
 S          2.8694363705        0.4556763594        0.4073890811
 O          2.6599061103        0.1029780288        1.7947461410
 O          1.8842305008        1.3215847100       -0.1924289485
 C          4.4963415007        1.1545017291        0.1960984217
 C          4.7491882711        1.9282285996       -0.9207055879
 C          6.0215999712        2.4464042993       -1.1030137876
 C          7.0150356310        2.1826781386       -0.1716667576
 C          6.7462967507        1.4057094281        0.9451598820
 C          5.4759514106        0.8840771584        1.1331111316
 H          5.2173057204        0.2842245580        1.9908173613
 H          7.5193591006        1.2051872976        1.6692192320
 H          8.0040372812        2.5879559784       -0.3158996873
 H          6.2327039914        3.0532807997       -1.9686322772
 H          3.9425570212        2.1116091701       -1.6115689579
 H          3.9791599702       -1.2695266004       -0.5642371796
 H          3.4026851297       -3.4918884700       -1.1352153708
 H          1.6720721292       -5.2467787796       -1.0571541518
 H         -0.6135653407       -4.7118444893       -0.3402784418
 C         -1.5854665202       -2.2641498595        0.4813251594
 H         -1.5645975603       -2.2317537500        1.5822740794
 C         -2.6551098504       -3.2450254390        0.0428155288
 C         -2.9957375508       -4.4335261793        0.8900621482
 C         -3.9502917205       -3.2827437390        0.7957398986
 H         -4.8669641904       -3.4121731085        0.2402984685
 H         -4.0444089304       -2.6236273794        1.6467803390
 H         -2.4514229709       -4.5621802499        1.8135247181
 H         -3.2609757209       -5.3574565490        0.3985642577
 H         -2.6990520303       -3.3512706484       -1.0354507913
 O         -2.2083707498       -0.1267042402        2.2685396604
