  62
        -98.94569891
 C         -2.5599286560       -0.1505284257        0.0798018202
 C         -2.4322771969       -1.2174781857       -0.8391760712
 C         -1.8853167525       -2.4663543895       -0.3001270132
 C         -1.5413851608       -2.5364290339        0.9989692948
 C         -0.9491629625       -3.7320002171        1.6942890519
 C          0.5700302877       -3.8522571826        1.5091611642
 C          1.0177613772       -4.3445800989        0.1320358244
 H          2.0685461230       -4.6279398725        0.2188071410
 H          0.4571898546       -5.2410343673       -0.1366634221
 C          0.8857987847       -3.2969365400       -0.9818786398
 H          1.7935144832       -3.2929070090       -1.5911538896
 H          0.8088113947       -2.3004849522       -0.5396919661
 C         -0.2904392853       -3.5152184617       -1.9339530895
 H         -0.3143662547       -2.6755881708       -2.6341188283
 H         -0.1311416207       -4.4308211544       -2.5092341093
 C         -1.6601877419       -3.6047251364       -1.2496461692
 H         -2.4308544574       -3.5467350226       -2.0229315301
 H         -1.7574641374       -4.5571908508       -0.7286341881
 H          0.9378337893       -4.5531867905        2.2623042244
 H          1.0216954886       -2.8762333609        1.7047259127
 H         -1.1594680886       -3.6074612658        2.7586227422
 H         -1.4364315294       -4.6433667429        1.3459631445
 O         -1.7140665035       -1.4997819910        1.8601746986
 C         -2.1858739550       -0.2742169620        1.4184312505
 O         -2.2447256780        0.6030342444        2.3021284436
 H         -0.3742646252        0.7766811404       -0.5299929623
 C         -0.5907738256        1.8097868600       -0.3009048687
 C         -1.9124696144        2.2269435233       -0.2103329785
 C         -2.1631276687        3.5681917269        0.0494303178
 C         -1.1134156823        4.4538870388        0.2291118552
 C          0.1992196556        4.0242238169        0.1764599745
 C          0.4606461250        2.6809175376       -0.0775125662
 N          1.7787277195        2.1949490037       -0.0630781603
 S          2.1233745440        0.5799844037       -0.3532933392
 O          1.8288012706        0.2243759525       -1.7254702153
 O          1.5021629523       -0.2184975462        0.6728315630
 C          3.8882754169        0.6069008791       -0.1074928069
 C          4.3701280575        0.6295584926        1.1876234104
 C          5.7396921345        0.6758408310        1.3929925585
 C          6.6005052069        0.6987497477        0.3053785392
 C          6.1028269123        0.6725629530       -0.9885225362
 C          4.7335525840        0.6271710533       -1.2002556018
 H          4.3000578327        0.5965101383       -2.1869197075
 H          6.7743037184        0.6867227941       -1.8318219642
 H          7.6661042859        0.7339205045        0.4680557764
 H          6.1297148640        0.6928554368        2.3978962535
 H          3.6617327181        0.6008975336        1.9995956237
 H          2.4741283078        2.8331570775       -0.4190094501
 H          1.0146886682        4.7113865237        0.3387728307
 H         -1.3230097432        5.4945544567        0.4249830215
 H         -3.1802860816        3.9193074564        0.1135754566
 C         -3.0078400919        1.2079793526       -0.4235788139
 H         -3.1567208037        1.0848104195       -1.5080361531
 C         -4.3247678157        1.6144868924        0.2061179854
 C         -5.3258263145        2.4156825653       -0.5701761199
 C         -5.5867272517        0.9691770670       -0.2804656156
 H         -6.3464775423        0.7126346470        0.4422770999
 H         -5.4963204603        0.2592101650       -1.0898279476
 H         -5.0718980720        2.6881826141       -1.5835761714
 H         -5.9122950891        3.1546374962       -0.0453062207
 H         -4.2331630601        1.7966204302        1.2709566171
 O         -2.7587162329       -1.1278900386       -2.0558393118
