  62
        -98.94492001
 C          1.9646528384        0.8522933893        0.0701412977
 C          2.2558623124       -0.1150566638        1.0592600027
 C          2.3459287109       -1.5042778200        0.5939843357
 C          2.1186544292       -1.7776042000       -0.7039965645
 C          2.2081803739       -3.1438771733       -1.3194344829
 C          3.6203867922       -3.4267682365       -1.8510413929
 C          4.7305260048       -3.1189119908       -0.8462718386
 H          5.6791819351       -3.3824891805       -1.3185956459
 H          4.7510196788       -2.0430367288       -0.6586948956
 C          4.5999502608       -3.8626175342        0.4901162635
 H          5.5781145450       -4.2615686768        0.7663053930
 H          3.9230583143       -4.7101647068        0.3777266288
 C          4.1295094245       -2.9918114253        1.6565667680
 H          4.2782882084       -3.5531868547        2.5827317452
 H          4.7476040860       -2.0925324667        1.7153177636
 C          2.6577193827       -2.5605330822        1.6168710446
 H          2.0183767600       -3.4344129735        1.4725480254
 H          2.4125023022       -2.1167339391        2.5865539016
 H          3.6735283366       -4.4763377222       -2.1457245941
 H          3.7830223861       -2.8140253992       -2.7405716680
 H          1.4972097066       -3.1906313019       -2.1462636031
 H          1.9307068850       -3.8879747387       -0.5750205097
 O          1.8280227877       -0.8234661271       -1.6244205994
 C          1.7291591307        0.5099588445       -1.2615679813
 O          1.4475414110        1.2799411494       -2.2003808423
 O          2.4294773430        0.1716751529        2.2764066381
 C          1.7976797425        2.3033537285        0.4826970545
 C          0.3971201464        2.7582805728        0.1509745104
 C          0.1043689479        3.9891497494       -0.4215966670
 C         -1.2025983399        4.3206194886       -0.7358914834
 C         -2.2365362312        3.4339103608       -0.5004839816
 C         -1.9556971348        2.2074353742        0.0922230200
 C         -0.6517306986        1.8914711480        0.4316910312
 H         -0.4469658539        0.9342767898        0.8905376328
 N         -2.9811668815        1.2850487199        0.3700246205
 S         -2.6211013911       -0.3604353678        0.2344834453
 O         -2.0042238426       -0.8025379898        1.4611745736
 O         -1.8907209853       -0.6231661692       -0.9852139819
 C         -4.2709160939       -1.0305775554        0.1271491846
 C         -4.7924768519       -1.3604576673       -1.1093280302
 C         -6.0880916971       -1.8482229263       -1.1820253429
 C         -6.8367053997       -1.9936342293       -0.0237881197
 C         -6.2993773364       -1.6586165266        1.2103912881
 C         -5.0044662008       -1.1715838551        1.2902371757
 H         -4.5397262456       -0.9066543606        2.2255083100
 H         -6.8834111471       -1.7754825147        2.1088839250
 H         -7.8444658395       -2.3731128978       -0.0833774189
 H         -6.5067099980       -2.1124506363       -2.1397233092
 H         -4.1689793367       -1.2369334518       -1.9805480309
 H         -3.8446997103        1.5103598258       -0.1059811796
 H         -3.2510074844        3.6842019773       -0.7711335763
 H         -1.4159728487        5.2771440814       -1.1884697763
 H          0.9007487638        4.6829263993       -0.6358088459
 H          1.9145603848        2.3129441163        1.5773258979
 C          2.8781235852        3.1674041916       -0.1330161942
 C          3.3584771993        4.3990863894        0.5733386432
 C          4.2361332133        3.1870855384        0.5002357597
 H          5.1038287895        3.2128990625       -0.1416531447
 H          4.3719230791        2.5966076347        1.3947182350
 H          3.6279776820        5.2605683626       -0.0187702350
 H          2.9056139247        4.6383151428        1.5235883683
 H          2.8297635465        3.1796659734       -1.2162298832
