  62
        -98.94667317
 C          1.1788887106        1.2623542792        0.0788440304
 C          1.5780674503        0.2871162591        1.0257032505
 C          2.4229820798       -0.7995034812        0.5177296805
 C          2.7083399398       -0.8473500514       -0.7963238595
 C          3.6305866293       -1.8434400618       -1.4368353095
 C          5.0726428095       -1.3165758524       -1.4677919196
 C          5.5653194298       -0.7826511725       -0.1226131397
 H          6.6032664499       -0.4706753129       -0.2575009897
 H          4.9936942502        0.1108533777        0.1384770103
 C          5.4810272395       -1.7920715624        1.0310332604
 H          6.4142707295       -1.7553140428        1.5970057303
 H          5.3845040291       -2.8029196024        0.6333481505
 C          4.3479397196       -1.5269471319        2.0243144604
 H          4.5091311094       -2.1604036520        2.9006758505
 H          4.3922740301       -0.4878054319        2.3602835104
 C          2.9303183495       -1.8077529814        1.5092845405
 H          2.8839456991       -2.8156243914        1.0930781206
 H          2.2498940595       -1.7568771411        2.3641042505
 H          5.1308669598       -0.5071711425       -2.1991244197
 H          5.7275051592       -2.1233237927       -1.8021974496
 H          3.5929663990       -2.7800961418       -0.8838538695
 H          3.2980789392       -2.0169453217       -2.4616741695
 O          2.2189164401        0.0454717287       -1.6911007495
 C          1.4441727605        1.1225487091       -1.2838650296
 O          1.0670675808        1.8554516792       -2.2161602196
 H         -1.3002530895        0.7221044703        1.6589257206
 C         -1.7863996493        1.2667333904        0.8593996306
 C         -1.0688074890        2.2447857901        0.1796600505
 C         -1.6934848587        2.9289825303       -0.8540888295
 C         -3.0029639889        2.6346653308       -1.1970012494
 C         -3.7151961392        1.6629355611       -0.5172267993
 C         -3.0969833395        0.9747851409        0.5190596107
 N         -3.8124570698       -0.0346015287        1.2065639707
 S         -4.0973682504       -1.4264085387        0.3205800808
 O         -4.9123490103       -1.0903323584       -0.8178026691
 O         -4.6546213708       -2.3800803184        1.2516569309
 C         -2.4861758907       -1.9716655193       -0.2178410592
 C         -1.8313713210       -2.9439541796        0.5111581108
 C         -0.5654258012       -3.3408898901        0.1134876408
 C          0.0248438790       -2.7526711104       -0.9940926093
 C         -0.6384370806       -1.7651190701       -1.7056744493
 C         -1.9071065405       -1.3676538596       -1.3161624893
 H         -2.4520440802       -0.6079918894       -1.8530998793
 H         -0.1695849305       -1.2946761604       -2.5560538894
 H          1.0075571889       -3.0647984308       -1.3086735993
 H         -0.0426171615       -4.1044254703        0.6665627308
 H         -2.3304893611       -3.3797272593        1.3619192608
 H         -3.3749480899       -0.2940177489        2.0806469707
 H         -4.7284124093        1.4111358515       -0.7848271793
 H         -3.4753599887        3.1704169110       -2.0064510694
 H         -1.1495864285        3.6796373301       -1.4030150496
 C          0.3713411111        2.4519271196        0.5746399604
 H          0.4256263212        2.3992232296        1.6711350104
 C          0.9546121016        3.7727753693        0.1235305103
 C          0.5486549822        5.0307797895        0.8293749703
 C          1.9303888220        4.4809527990        1.0130543202
 H          2.7587581621        5.0019210386        0.5568464202
 H          2.1745983418        4.0181547289        1.9582618703
 H         -0.1468201378        4.9390752298        1.6499976203
 H          0.4270059825        5.9324936295        0.2491388802
 H          1.1326748416        3.8227484292       -0.9432985197
 O          1.2496917304        0.3315235093        2.2426163805
