  62
        -98.94903438
 C         -0.8798351445       -1.3524651405        0.2291193262
 C         -1.4554565377       -0.2971636374        0.9727496672
 C         -2.2830366182        0.6478770520        0.2117177414
 C         -2.3861348564        0.5028213234       -1.1221927207
 C         -3.2030674965        1.3890060198       -2.0174818213
 C         -4.6231459054        0.8378821390       -2.2058179461
 C         -5.3149698213        0.4628350098       -0.8952113991
 H         -6.3200995017        0.1169609760       -1.1455957554
 H         -4.7871709653       -0.3807454354       -0.4444790230
 C         -5.4057902785        1.6074911065        0.1235015506
 H         -5.2510597776        2.5629480193       -0.3789638934
 H         -6.4134725677        1.6216873282        0.5439406648
 C         -4.4345017228        1.4884947128        1.2992658923
 H         -4.5182533380        0.4930902838        1.7422531288
 H         -4.7349170997        2.2126353464        2.0610924634
 C         -2.9567568104        1.7504347438        0.9800669355
 H         -2.8565315626        2.7048020661        0.4580375285
 H         -2.4217524634        1.8136344333        1.9320585804
 H         -5.2167933574        1.5867847213       -2.7334077412
 H         -4.5668498274       -0.0548040248       -2.8330652772
 H         -3.2438202182        2.3895454025       -1.5903846514
 H         -2.7063468136        1.4411889677       -2.9883610027
 O         -1.7891880706       -0.5038563864       -1.8089278796
 C         -1.0253577866       -1.4574208186       -1.1549759600
 O         -0.5492235131       -2.3360889817       -1.8992368588
 O         -1.2804231548       -0.1478402912        2.2126911431
 C          0.0033847381       -2.3592864574        0.9442659439
 C          1.3901043786       -2.3116298797        0.3518125537
 C          2.1328196019       -3.4404720868        0.0327104999
 C          3.3780040633       -3.3123372760       -0.5589000045
 C          3.8967001088       -2.0667512304       -0.8600345434
 C          3.1673717401       -0.9301594058       -0.5281341604
 C          1.9429428482       -1.0614488433        0.1031501023
 H          1.3822634560       -0.1749755118        0.3622191956
 N          3.6561136049        0.3547142855       -0.8057501817
 S          2.5919080208        1.5865644960       -1.1957923784
 O          1.4314940951        1.1114841226       -1.9126808561
 O          3.4152723193        2.5530540480       -1.8948305265
 C          2.1262367102        2.2786651811        0.3760253393
 C          3.1182675484        2.5296066786        1.3035990419
 C          2.7709044778        3.1047356224        2.5149849577
 C          1.4467633624        3.4260013251        2.7729163836
 C          0.4643065268        3.1743105438        1.8284783496
 C          0.8041420630        2.5924411078        0.6174958293
 H          0.0661213186        2.3610245241       -0.1361051189
 H         -0.5654320211        3.4212394907        2.0296088544
 H          1.1756615992        3.8741408103        3.7157616553
 H          3.5314921367        3.3010252733        3.2533723981
 H          4.1357278455        2.2703666109        1.0634474231
 H          4.4940903646        0.3837118975       -1.3681001578
 H          4.8522142466       -1.9702203746       -1.3525945266
 H          3.9433709558       -4.1971824437       -0.8094074928
 H          1.7315744937       -4.4206910298        0.2314297331
 H          0.0577266433       -2.0137857279        1.9876596946
 C         -0.6214646822       -3.7381097987        0.9164563404
 C         -0.3589374268       -4.7114307510        2.0257367205
 C         -1.7033182991       -4.0619059012        1.9014919648
 H         -2.5393948993       -4.6597322180        1.5708425776
 H         -1.9698525766       -3.2941520340        2.6130969726
 H         -0.2740043664       -5.7597174110        1.7822009043
 H          0.2851586899       -4.3901901939        2.8300458026
 H         -0.7301295377       -4.1229401361       -0.0915798206
