  62
        -98.94575547
 C          2.5010805934        0.0403994388       -0.5625296780
 C          2.4657989069        0.8269281070        0.6138304039
 C          1.9998547623        2.2082617452        0.4452802456
 C          1.5754837702        2.6281563307       -0.7596872975
 C          1.0408461471        3.9969535198       -1.0833669068
 C         -0.4379509474        4.1818339898       -0.7151121650
 C         -0.7217321358        4.3564506552        0.7778287234
 H         -0.0535534976        5.1141405868        1.1893559607
 H         -1.7413127520        4.7374208250        0.8649232243
 C         -0.6111523446        3.0638956606        1.5981096478
 H         -1.4585478568        2.9999025683        2.2855813149
 H         -0.6750922213        2.2009450224        0.9316633611
 C          0.6567158318        2.9473711915        2.4439163338
 H          0.6446349439        3.7061352008        3.2306412879
 H          0.6579316145        1.9636531505        2.9202122713
 C          1.9644770713        3.0907791855        1.6573727526
 H          2.1164556089        4.1307763338        1.3682302356
 H          2.7867312519        2.7841055463        2.3092749257
 H         -0.7953750009        5.0714410127       -1.2396533295
 H         -0.9985527689        3.3216557417       -1.0907093608
 H          1.6421998610        4.7564764358       -0.5821120506
 H          1.1476805900        4.1244583299       -2.1628612503
 O          1.6033204263        1.8342224050       -1.8641133752
 C          2.0528555994        0.5276343479       -1.7901140213
 O          2.0223623825       -0.0885891942       -2.8776137468
 O          2.8151523479        0.4082474800        1.7489097706
 C          2.8923923742       -1.4280936956       -0.4916705404
 C          1.8363301430       -2.1218203633        0.3355234792
 C          2.0899701230       -2.8260654445        1.5038686207
 C          1.0399791387       -3.3340252535        2.2513203618
 C         -0.2719243569       -3.1329410856        1.8649952079
 C         -0.5335726641       -2.4481939285        0.6819552769
 C          0.5188402501       -1.9790333505       -0.0837908494
 H          0.3077725631       -1.4531066199       -1.0050745144
 N         -1.8491102885       -2.2287633625        0.2421135856
 S         -2.1631830281       -0.8293601797       -0.6529833871
 O         -1.9796207623       -1.1354903262       -2.0508334521
 O         -1.4154481037        0.2899367025       -0.1308378512
 C         -3.9015666760       -0.6142471151       -0.3173116651
 C         -4.8098299093       -1.4244485884       -0.9728949390
 C         -6.1593760287       -1.2801083918       -0.6932265824
 C         -6.5759583029       -0.3337027389        0.2316033999
 C         -5.6531412539        0.4735568738        0.8793979261
 C         -4.3013697272        0.3332131878        0.6056182169
 H         -3.5467879680        0.9417898331        1.0781819773
 H         -5.9794874129        1.2110137253        1.5948193117
 H         -7.6269793782       -0.2222801223        0.4462550396
 H         -6.8798957565       -1.9036977062       -1.1972602824
 H         -4.4388191311       -2.1371722924       -1.6909454797
 H         -2.5422457844       -2.3896026182        0.9597063501
 H         -1.0878237374       -3.4996086707        2.4689684976
 H          1.2478744038       -3.8734574887        3.1630009873
 H          3.1048450066       -2.9590273282        1.8404318044
 H          2.8292741761       -1.8099418593       -1.5212259296
 C          4.3039728150       -1.6110677138        0.0188551878
 C          5.0567677065       -2.8651962553       -0.3064419100
 C          5.4400719503       -1.5708081164       -0.9567328902
 H          6.3601136668       -1.0927949058       -0.6559527281
 H          5.1943048908       -1.4272742523       -1.9991886597
 H          5.7184184572       -3.2780398041        0.4397210976
 H          4.5544047372       -3.6056410666       -0.9105370891
 H          4.4614864590       -1.1532059216        0.9878194032
