  62
        -98.93303140
 C          2.4191980498        1.0509698800        0.3676889604
 C          2.5764632099       -0.1527304903        1.1013146499
 C          3.8576572401       -0.8654191301        0.9591547198
 C          4.8080779901       -0.3382836196        0.1683129301
 C          6.1671736902       -0.9011073092       -0.1446962000
 C          6.1279496505       -1.7443074087       -1.4302000303
 C          5.7557584407       -3.2119796988       -1.2251316510
 H          5.6403152909       -3.6599863884       -2.2146563312
 H          6.5806934507       -3.7253123989       -0.7267892711
 C          4.4740444707       -3.4543344994       -0.4237521612
 H          4.1183487209       -4.4602563093       -0.6552491817
 H          3.6988250406       -2.7568816894       -0.7472647410
 C          4.6795927705       -3.3373273400        1.0939768488
 H          4.2852163506       -4.2308406403        1.5825906084
 H          5.7474739004       -3.3129022199        1.3096945690
 C          3.9917582202       -2.1349539604        1.7555697693
 H          2.9644013402       -2.4040874307        2.0218829990
 H          4.5040190500       -1.9036141207        2.6958607494
 H          5.4172243605       -1.2762327385       -2.1160033102
 H          7.1114082305       -1.7077250583       -1.9029520802
 H          6.5481918402       -1.4772145695        0.6931082198
 H          6.8241459401       -0.0448855490       -0.3109047495
 O          4.6187382700        0.8180080107       -0.5206334694
 C          3.4364281498        1.5358092105       -0.4549833493
 O          3.4422564998        2.5594269208       -1.1663525488
 O          1.6775247399       -0.6141389308        1.8580191296
 C          1.1041647497        1.7884572797        0.5457924906
 C          0.1208809399        1.5148065300       -0.5680198797
 C          0.4405050100        1.7531772906       -1.9003055995
 C         -0.4913656499        1.5150989708       -2.8940239297
 C         -1.7547189198        1.0465804205       -2.5809537701
 C         -2.0903177499        0.8200170499       -1.2505051502
 C         -1.1491573601        1.0497386796       -0.2567056000
 H         -1.4118715902        0.8482435592        0.7707861999
 N         -3.3900135399        0.4082618195       -0.9123656205
 S         -3.6703362799       -0.5390424411        0.4534549690
 O         -3.5192217802        0.2813586484        1.6286824194
 O         -2.8779045397       -1.7475330209        0.4005180386
 C         -5.3958877598       -0.9136816313        0.2069579287
 C         -6.3212507400        0.0852691985        0.4455860990
 C         -7.6643143100       -0.1810455817        0.2336447487
 C         -8.0581875797       -1.4350084615       -0.2100942519
 C         -7.1187119295       -2.4280130013       -0.4422918422
 C         -5.7730214396       -2.1675958411       -0.2338867319
 H         -5.0078699494       -2.9100506809       -0.3947959121
 H         -7.4282393293       -3.4026112812       -0.7837785926
 H         -9.1043433496       -1.6402243516       -0.3734538921
 H         -8.3979535401        0.5876483582        0.4155454090
 H         -5.9691215102        1.0404817384        0.7983526994
 H         -3.9084018898        0.0612691998       -1.7080698807
 H         -2.4795187297        0.8636521007       -3.3596349202
 H         -0.2296466598        1.6959199813       -3.9257918196
 H          1.4236748599        2.1228689108       -2.1473092193
 H          0.6705848896        1.3795999592        1.4694879203
 C          1.2708675494        3.2867448896        0.7210993912
 C          0.1818183792        4.0608926691        1.3981678314
 C          1.4926706692        3.8459584591        2.0925275215
 H          2.1638517690        4.6841667691        2.2039000819
 H          1.5243657392        3.1480614487        2.9169417212
 H         -0.0500032509        5.0493284793        1.0325780618
 H         -0.6769169307        3.5095255889        1.7521948111
 H          1.7916964594        3.7587260100       -0.1017005785
