  62
        -98.94034011
 C         -2.1761302376       -0.9361095094        0.2523422485
 C         -1.0641139337       -1.2556049994        1.0639481826
 C         -0.2756402298       -2.4366136464        0.6661335714
 C         -0.5842887734       -3.0811577557       -0.4705616668
 C          0.1652000957       -4.2234391440       -1.0972081388
 C          1.1915443152       -3.6943497401       -2.1140822122
 C          2.5632527420       -3.3644385509       -1.5280713180
 H          3.0643066559       -4.2918359447       -1.2404873094
 H          3.1517855280       -2.9035743189       -2.3250263553
 C          2.5461915590       -2.4151704603       -0.3264865865
 H          1.8372341872       -1.6070619287       -0.5154973313
 H          3.5352364278       -1.9567024317       -0.2496603255
 C          2.2255688792       -3.1210301289        0.9990021918
 H          2.9611784413       -2.8199094173        1.7473965673
 H          2.3454695586       -4.1959619265        0.8596707100
 C          0.8375118107       -2.8347730832        1.5973315409
 H          0.5101350159       -3.7108108210        2.1671733668
 H          0.9140449823       -2.0071545987        2.3080110734
 H          1.3274061894       -4.4409223083       -2.8997270618
 H          0.7737374182       -2.7974858194       -2.5803059172
 H          0.6461673723       -4.8316484612       -0.3362526314
 H         -0.5708849014       -4.8324146554       -1.6261115492
 O         -1.6331486565       -2.7150651069       -1.2562514951
 C         -2.4467054573       -1.6532181044       -0.9165167493
 O         -3.3809668717       -1.4466999796       -1.7192589073
 O         -0.7094466323       -0.5929764206        2.0776338695
 C         -3.0936043396        0.2527360605        0.4984603361
 C         -2.5380476501        1.4800015126       -0.1875234999
 C         -3.3473326200        2.3142397014       -0.9488086311
 C         -2.8054887607        3.3986707374       -1.6164146501
 C         -1.4440175802        3.6412881296       -1.5772564833
 C         -0.6263115445        2.8109438387       -0.8193914467
 C         -1.1860006597        1.7717133753       -0.0945017626
 H         -0.5480206085        1.1541814755        0.5123604076
 N          0.7691858200        2.9810176947       -0.7876369775
 S          1.7568344622        1.6522660360       -1.1344801079
 O          2.6167370520        2.0841446505       -2.2203805030
 O          0.9679797012        0.4712188273       -1.3803494313
 C          2.7606002281        1.4758694752        0.3281489674
 C          2.2867055201        0.7800176310        1.4214437646
 C          3.0930742759        0.6659786231        2.5435001020
 C          4.3508345828        1.2476329808        2.5583038491
 C          4.8125195771        1.9464368672        1.4531675790
 C          4.0123847974        2.0624394154        0.3285725211
 H          4.3354937163        2.5847375416       -0.5568370261
 H          5.7911228560        2.3987545471        1.4639317544
 H          4.9728033565        1.1542686905        3.4346389651
 H          2.7261889736        0.1224711859        3.3998310010
 H          1.3067389355        0.3311874431        1.3977132682
 H          1.0884217160        3.7773068497       -1.3221648376
 H         -1.0143610819        4.4592575935       -2.1363559328
 H         -3.4445842480        4.0430560939       -2.2011340333
 H         -4.4020185736        2.0979168291       -1.0339950360
 H         -4.0454040406        0.0036769333        0.0078953676
 C         -3.3694226469        0.5340434777        1.9621816388
 C         -4.6457711473        1.2172527029        2.3468890349
 C         -4.4451352457       -0.2328983010        2.6678832263
 H         -4.2810964968       -0.5206922275        3.6951600269
 H         -4.9957018450       -0.9636188308        2.0929021565
 H         -4.6218842990        1.9311004505        3.1556743723
 H         -5.3396858069        1.4683855298        1.5591110577
 H         -2.4785635411        0.7740410426        2.5266876637
