  62
        -98.93821004
 C          2.1034779123        1.0174987475        0.5287614738
 C          2.2781342059        0.2530807916       -0.6494866100
 C          2.9621124481       -1.0426464355       -0.4890113700
 C          3.3122906108       -1.4595415084        0.7390400852
 C          3.9682375133       -2.7580516998        1.1371543101
 C          5.1357958403       -3.2551816524        0.2725625208
 C          5.9921680997       -2.1505418302       -0.3637405804
 H          5.7470641092       -1.1843139923        0.0802843172
 H          7.0435860900       -2.3506043877       -0.1494662710
 C          5.8302225141       -2.0704339949       -1.8837002795
 H          6.6982693840       -1.5555529732       -2.3021536144
 H          5.8253319429       -3.0847795724       -2.2883928466
 C          4.5860589580       -1.3307443328       -2.3743988656
 H          4.5284430215       -1.4517197558       -3.4586644238
 H          4.6888958997       -0.2605995950       -2.1757326898
 C          3.2551786129       -1.7912149617       -1.7570756490
 H          2.4510001177       -1.5314670141       -2.4510612521
 H          3.2420725514       -2.8673530243       -1.6013716661
 H          4.7539639918       -3.9048226899       -0.5138404809
 H          5.7614770844       -3.8758665486        0.9161413799
 H          3.1941904712       -3.5306612626        1.1737183202
 H          4.3125469817       -2.5996509008        2.1620795161
 O          3.0618768150       -0.7188539506        1.8570746851
 C          2.4592333203        0.5242850005        1.7823461257
 O          2.2903200413        1.0803060031        2.8886153607
 O          1.8847162981        0.6258174917       -1.7842268327
 C          1.4190218146        2.3742915764        0.4754471681
 C         -0.0264675750        2.1592149740        0.0963730243
 C         -0.6223041068        2.6868013364       -1.0402246680
 C         -1.9417270488        2.3900115338       -1.3392977832
 C         -2.6912882307        1.5701512708       -0.5157964722
 C         -2.1053856924        1.0437812390        0.6284872947
 C         -0.7878476515        1.3446262629        0.9270134238
 H         -0.3285981299        0.9264078268        1.8155039287
 N         -2.8637717651        0.1953545104        1.4692468908
 S         -3.2193060307       -1.3097299369        0.7967928870
 O         -3.4863603855       -2.1795310838        1.9224557648
 O         -2.1801061279       -1.7390509980       -0.1128373774
 C         -4.7345745617       -1.0200898559       -0.0902113669
 C         -5.8528813432       -0.6584055854        0.6357264240
 C         -7.0403731704       -0.4237806581       -0.0387435416
 C         -7.0890198351       -0.5563087902       -1.4187420406
 C         -5.9578279191       -0.9225850141       -2.1321674482
 C         -4.7660485135       -1.1576732838       -1.4638789783
 H         -3.8589813892       -1.4379639644       -1.9752886519
 H         -5.9973945040       -1.0248161943       -3.2047286670
 H         -8.0142840480       -0.3732422237       -1.9418608658
 H         -7.9221455493       -0.1390067099        0.5122405460
 H         -5.7700478737       -0.5731818146        1.7063309944
 H         -2.4212779522        0.0480950079        2.3667589700
 H         -3.7176678570        1.3360798551       -0.7469973694
 H         -2.3910720605        2.8015930502       -2.2300105977
 H         -0.0499918806        3.3172881875       -1.7001287041
 H          1.4434067565        2.7637774749        1.5035016161
 C          2.1616039570        3.3324531221       -0.4293701189
 C          1.9895956786        4.8097431734       -0.2478025829
 C          3.2786216470        4.1518580746        0.1407400077
 H          4.1526287218        4.3256482717       -0.4688010911
 H          3.4976420397        4.0328328348        1.1921865784
 H          1.9803754215        5.4397533872       -1.1240445925
 H          1.3329245594        5.1419705869        0.5419320054
 H          2.2875036376        2.9496648229       -1.4347366470
