  62
        -98.94480349
 C          1.6096807267        1.2876289912       -0.2417669181
 C          1.4083963629       -0.0878055242       -0.5094245228
 C          2.2541507410       -1.0199930442        0.2472554747
 C          3.1127019277       -0.5559051856        1.1711279605
 C          4.0160796900       -1.3854559781        2.0428145053
 C          5.3329957215       -1.7952164817        1.3685648893
 C          5.2063970625       -2.8684155340        0.2863534543
 H          6.2170433793       -3.2136282159        0.0594027462
 H          4.6531805977       -3.7195585968        0.6846237621
 C          4.5467614617       -2.3843028160       -1.0124307093
 H          4.5579944529       -1.2923695701       -1.0406286006
 H          5.1287961295       -2.7334059460       -1.8682286396
 C          3.1106515659       -2.8686243825       -1.2121161871
 H          3.1013800940       -3.9556817399       -1.3174407170
 H          2.7289219789       -2.4350967236       -2.1396405168
 C          2.1536747300       -2.4800050961       -0.0777622665
 H          1.1295152643       -2.6803448578       -0.4017443192
 H          2.3551840724       -3.0793337803        0.8100078805
 H          5.7990693402       -0.9027100451        0.9446402084
 H          5.9937327473       -2.1751020581        2.1512859307
 H          4.2514574696       -0.7729745499        2.9161107943
 H          3.4826210924       -2.2752608294        2.3792010991
 O          3.2479304988        0.7710349998        1.4356719957
 C          2.5164794377        1.7130643417        0.7338421058
 O          2.7624088839        2.8926855335        1.0613844509
 H         -1.1448280423        0.6496576728       -0.3525971881
 C         -1.3593574972        1.6325543565        0.0297159274
 C         -0.4568032615        2.6648615158       -0.1860385380
 C         -0.7524310131        3.9288674313        0.3091098527
 C         -1.9188501103        4.1485313197        1.0200639585
 C         -2.7927930656        3.1074599679        1.2720842768
 C         -2.5060972047        1.8372627061        0.7811157806
 N         -3.3761681219        0.7670887646        1.0325791986
 S         -2.8203742610       -0.7721874162        1.4235151385
 O         -3.6811440551       -1.2032103119        2.5086844403
 O         -1.4042758043       -0.7756899319        1.6959724902
 C         -3.2289301787       -1.7355824276       -0.0184677040
 C         -2.2909763512       -1.9748078930       -1.0013332301
 C         -2.6638430247       -2.7149385574       -2.1139068169
 C         -3.9572589523       -3.1992154049       -2.2262197568
 C         -4.8884137002       -2.9507326209       -1.2287077523
 C         -4.5230912928       -2.2128141906       -0.1155297040
 H         -5.2092502109       -2.0088134659        0.6896965664
 H         -5.8940892534       -3.3294540025       -1.3154214125
 H         -4.2392491241       -3.7743386530       -3.0941599407
 H         -1.9347722917       -2.9038967443       -2.8858436581
 H         -1.2886002217       -1.5871174078       -0.9005632388
 H         -4.1662985195        1.0089190970        1.6131488278
 H         -3.6892664325        3.2710312708        1.8512898433
 H         -2.1396785716        5.1347687208        1.3996425343
 H         -0.0518995800        4.7359775144        0.1523454580
 C          0.8357211784        2.4061020252       -0.9243413111
 H          1.4604969618        3.3045347535       -0.8224367150
 C          0.5792525394        2.1686808585       -2.3992103506
 C          0.3582811938        3.3483543240       -3.2956209758
 C          1.6267735534        2.5564677816       -3.3970474355
 H          1.7765172154        1.9230674329       -4.2582742240
 H          2.5368031759        2.9999351476       -3.0188953587
 H         -0.3670243775        3.2614083022       -4.0897406110
 H          0.4103357026        4.3316039916       -2.8529719749
 H          0.0116318870        1.2699554703       -2.5983075581
 O          0.5756860944       -0.5442654462       -1.3369197839
