  62
        -98.93447458
 C          2.0353831133       -0.6384012553        0.5106885838
 C          3.1853165235       -1.2193093163       -0.0829379826
 C          4.4543922766       -0.4888850006        0.0674076026
 C          4.4614333555        0.6872757651        0.7168401694
 C          5.6321009738        1.5866735274        1.0266307439
 C          6.6792363658        1.7952020993       -0.0750054902
 C          6.1213522418        1.8013474474       -1.5057127054
 H          5.0313271193        1.8528474781       -1.4819650471
 H          6.4776727771        2.6948525333       -2.0217991861
 C          6.5573389485        0.5820053563       -2.3216349323
 H          7.6164874041        0.3942947979       -2.1320758183
 H          6.4519711027        0.8148035911       -3.3840220633
 C          5.7671640629       -0.6992033352       -2.0587794557
 H          4.7525612342       -0.5955304189       -2.4526301483
 H          6.2448217585       -1.5091333277       -2.6153298917
 C          5.6536884098       -1.1164047722       -0.5833723059
 H          5.4836797020       -2.1961116460       -0.5528000105
 H          6.5686250058       -0.8944326815       -0.0394365930
 H          7.4492300413        1.0289507673        0.0031627721
 H          7.1656363335        2.7503700100        0.1305574113
 H          5.1869717767        2.5481120392        1.2946999218
 H          6.1275922284        1.2015468746        1.9229090178
 O          3.3270275249        1.2299242490        1.2395957583
 C          2.0920997666        0.5986219575        1.1531434986
 O          1.1675255312        1.2422617967        1.6822041778
 H         -1.3461354482       -0.1819776075        1.7012386174
 C         -1.3330922206        0.0631536961        0.6508233526
 C         -0.3444659312       -0.4633152952       -0.1654395077
 C         -0.3325494743       -0.1088197300       -1.5111820109
 C         -1.2783494902        0.7595269027       -2.0231586660
 C         -2.2555104372        1.2943480232       -1.2026360220
 C         -2.2745598711        0.9481197862        0.1419153381
 N         -3.2632405123        1.4906964853        0.9789599038
 S         -4.8451977348        1.4763969342        0.4420058671
 O         -5.0616358999        2.5654006328       -0.4778652829
 O         -5.6554695915        1.4910624847        1.6396909090
 C         -5.0193424830       -0.0803443721       -0.4127404360
 C         -4.8642585321       -1.2408679893        0.3196989267
 C         -4.9471555577       -2.4607726314       -0.3309244606
 C         -5.1801237420       -2.4993607751       -1.6974104846
 C         -5.3384186540       -1.3259773643       -2.4177034136
 C         -5.2556229730       -0.1025169722       -1.7718257938
 H         -5.3712621485        0.8331327657       -2.2940529997
 H         -5.5220788121       -1.3594635249       -3.4794861103
 H         -5.2395736481       -3.4505271294       -2.2024550615
 H         -4.8266749147       -3.3753659586        0.2272790408
 H         -4.6911091237       -1.1744140934        1.3818164165
 H         -3.1878351348        1.2066573802        1.9439449698
 H         -2.9911942179        1.9870347041       -1.5781425117
 H         -1.2534352411        1.0274194160       -3.0685107266
 H          0.4372262103       -0.5171933385       -2.1515236326
 C          0.7227886476       -1.3880650046        0.3594327952
 H          0.9324739444       -2.1404795303       -0.4180857290
 C          0.2869266228       -2.1602037351        1.5958446120
 C          1.3008786907       -2.8355700583        2.4687683059
 C          0.5161106281       -1.6726113041        2.9938701255
 H         -0.2486180159       -1.8651889075        3.7328365151
 H          1.0180536831       -0.7270179834        3.1255921679
 H          1.0809593539       -3.8215484407        2.8493561377
 H          2.3432087167       -2.6806173761        2.2307931846
 H         -0.6358987259       -2.7049548365        1.4197239933
 O          3.1557530430       -2.3126700354       -0.7072064008
