  62
        -98.94532377
 C          2.3645777092        0.3662906691        0.0936825082
 C          1.5544879860       -0.2875162661       -0.8614934232
 C          1.5850298843       -1.7606428847       -0.8558546671
 C          2.3276466370       -2.3976273186        0.0659774769
 C          2.5838424036       -3.8755107888        0.2421166535
 C          1.4458005505       -4.8565266511       -0.0490791571
 C          0.0623260259       -4.3980737437        0.4337505181
 H         -0.3836031645       -5.1867400203        1.0430228820
 H          0.1550556944       -3.5124228669        1.0664430648
 C         -0.8966964089       -4.0828071093       -0.7151136049
 H         -1.9205242797       -4.1152352699       -0.3340364866
 H         -0.8030337413       -4.8532032281       -1.4841155084
 C         -0.6931004393       -2.7055731166       -1.3407903342
 H         -0.9205212572       -1.9434778821       -0.5915151697
 H         -1.4142279593       -2.5891670014       -2.1537828151
 C          0.7196238145       -2.4312013600       -1.8852234440
 H          1.1785934452       -3.3406425666       -2.2661891656
 H          0.6317780850       -1.7169536494       -2.7084034218
 H          1.4037430848       -5.0638332982       -1.1171505171
 H          1.7113538460       -5.7941722518        0.4430735128
 H          3.4469149957       -4.1376018471       -0.3786669484
 H          2.8973614569       -3.9847485257        1.2838735990
 O          3.0511760860       -1.7233648273        1.0075846352
 C          3.0878590356       -0.3419321844        1.0490918930
 O          3.7911094249        0.1300888985        1.9677152910
 H          0.4287326482        0.9790890374        1.6477366865
 C          0.1270148285        1.8475450642        1.0800816875
 C          1.0347035995        2.4617596713        0.2270778015
 C          0.6229024435        3.5854937809       -0.4792753762
 C         -0.6716377256        4.0591243631       -0.3524433330
 C         -1.5866248228        3.4121142760        0.4579258090
 C         -1.1812539709        2.2924599603        1.1750134613
 N         -2.0787511578        1.5794735071        1.9978651727
 S         -2.3929071767       -0.0134192302        1.5776164406
 O         -3.3743092707       -0.4671335447        2.5402049421
 O         -1.1628590249       -0.7596361660        1.5249020841
 C         -3.1603391544        0.0938926315       -0.0307845405
 C         -4.5311253263       -0.0637987449       -0.1104899459
 C         -5.1550311400        0.0733361061       -1.3393597263
 C         -4.4011772223        0.3755013984       -2.4635790753
 C         -3.0281560522        0.5360060263       -2.3652653489
 C         -2.3943883587        0.3964034348       -1.1393173614
 H         -1.3242612900        0.5076896002       -1.0547352093
 H         -2.4332452953        0.7693655034       -3.2336505023
 H         -4.8850540162        0.4852706117       -3.4213580302
 H         -6.2228822492       -0.0538201844       -1.4158115319
 H         -5.0737309782       -0.2991099307        0.7909196876
 H         -2.9575383556        2.0571144424        2.1469481021
 H         -2.6040924279        3.7646909131        0.5362678779
 H         -0.9769734204        4.9329767839       -0.9073302452
 H          1.3155293232        4.0880720771       -1.1343809059
 C          2.4247272867        1.8826585206        0.1271273567
 H          2.9743370537        2.1451987938        1.0435706161
 C          3.2005655749        2.3930644531       -1.0710491523
 C          4.0152700548        3.6468188474       -0.9711552721
 C          4.6964842446        2.3144244260       -1.0472504830
 H          5.2142713830        2.0477674466       -1.9563152490
 H          5.1549332821        1.9183067934       -0.1524473886
 H          4.0238254893        4.1643024481       -0.0237372606
 H          4.0705066673        4.2966475285       -1.8315380421
 H          2.7035633516        2.1760004578       -2.0097061627
 O          0.8521252444        0.3328520078       -1.7029423243
