  62
        -98.94014419
 C         -2.0207139557       -0.6747624487        0.9324638359
 C         -2.8716116475       -1.1573065286       -0.0927842450
 C         -4.2667778469       -0.6881691379       -0.0384636778
 C         -4.6520233437        0.1485419173        0.9407874748
 C         -6.0226629795        0.7449949960        1.0736644754
 C         -6.1151663233        2.0937832587        0.3465190537
 C         -5.5790157849        2.0621175640       -1.0847728551
 H         -5.7244055223        3.0583841555       -1.5082041217
 H         -4.5021138913        1.8796450070       -1.0581702043
 C         -6.2481645781        1.0187603104       -1.9904516824
 H         -7.1970595155        0.7039894696       -1.5544931697
 H         -6.4724835936        1.4836639107       -2.9528574199
 C         -5.3896513434       -0.2137700347       -2.2802844540
 H         -4.4034940947        0.1017971977       -2.6298496289
 H         -5.8615468202       -0.7724990501       -3.0929023807
 C         -5.1984820269       -1.1847640961       -1.1083312879
 H         -6.1701273503       -1.4442724941       -0.6833473247
 H         -4.7412056860       -2.0960502281       -1.5047190540
 H         -7.1596244662        2.4110003790        0.3390112096
 H         -5.5400846936        2.8317242327        0.9108445028
 H         -6.7565151392        0.0509562332        0.6684952814
 H         -6.2289664567        0.8994327587        2.1341910190
 O         -3.8077694412        0.5894891052        1.9086381187
 C         -2.4807768972        0.1990597342        1.9215785417
 O         -1.8147098275        0.6820135421        2.8604485911
 H          1.5487475121        0.4358939098        1.8584339040
 C          1.3492713558        0.5709120896        0.8038101415
 C          0.2913819859       -0.1080135422        0.2177052784
 C          0.0384776567        0.0907710453       -1.1362366603
 C          0.8248201630        0.9532062965       -1.8780480341
 C          1.8797924409        1.6292538407       -1.2895463600
 C          2.1413354746        1.4357477712        0.0597157617
 N          3.2380650738        2.0978408478        0.6507574713
 S          4.7364471772        1.7178415076       -0.0053117900
 O          5.7043207561        2.0676631046        1.0090235807
 O          4.8777637886        2.3775335767       -1.2777802362
 C          4.6636383276       -0.0496294206       -0.2289366757
 C          4.2910833485       -0.5678513856       -1.4528606337
 C          4.1289277307       -1.9384635312       -1.5771970851
 C          4.3407482787       -2.7622977626       -0.4830151173
 C          4.7240699087       -2.2269125768        0.7373522384
 C          4.8804854144       -0.8568576437        0.8703380676
 H          5.1774787860       -0.4017835876        1.8019495146
 H          4.8913916925       -2.8713814978        1.5854946628
 H          4.2022601253       -3.8271178801       -0.5801960407
 H          3.8310831611       -2.3583463127       -2.5243893914
 H          4.1389832563        0.1052506254       -2.2802527980
 H          3.2692207776        1.9957920938        1.6554758617
 H          2.5090418115        2.2979743577       -1.8545829067
 H          0.6158791457        1.1002715731       -2.9269340299
 H         -0.7766312608       -0.4448746426       -1.5984669655
 C         -0.5510994731       -1.0492069696        1.0386671094
 H         -0.2939983996       -0.8848132000        2.0968242277
 C         -0.2774146878       -2.5157886049        0.7280952935
 C          0.5756757538       -2.9786998383       -0.4115008891
 C          1.0870019408       -3.0815639852        0.9915038354
 H          1.1644422104       -4.0554815714        1.4499095709
 H          1.8596835209       -2.3881452531        1.2892454395
 H          1.0169975740       -2.2366513743       -1.0578788395
 H          0.2727815120       -3.8789931992       -0.9234794055
 H         -1.1219197234       -3.1475505801        0.9812222728
 O         -2.5086324969       -1.9359380950       -1.0101695674
