  62
        -98.93941999
 C         -2.4747185232       -0.0458860430        0.5351966508
 C         -2.3387926842        0.7120097896       -0.6496521557
 C         -1.8846015323        2.1067909055       -0.4967096746
 C         -1.5410237804        2.5562963434        0.7240030200
 C         -1.0280709773        3.9024742777        1.1932891630
 C         -0.6931751885        5.0003050589        0.1884037171
 C          0.5783889377        4.7505747931       -0.6236182851
 H          0.6413936029        5.5110556771       -1.4052221219
 H          1.4379417402        4.8804843863        0.0388765863
 C          0.7036546506        3.3699936212       -1.2634382316
 H          0.7039230690        2.5927300665       -0.4962289908
 H          1.6768589072        3.3230899669       -1.7608568999
 C         -0.3587166266        3.0305566801       -2.3053258082
 H         -0.0870758865        2.0674766995       -2.7462541360
 H         -0.3529280924        3.7811502732       -3.0992598953
 C         -1.7913919353        2.9025309857       -1.7682748094
 H         -2.2525847753        3.8794968646       -1.6439160662
 H         -2.3781466633        2.3529504786       -2.5107522810
 H         -1.5426732026        5.1792267446       -0.4641648107
 H         -0.5391254989        5.9162124625        0.7654598745
 H         -1.7897710286        4.2805932369        1.8842296048
 H         -0.1424109492        3.6876161240        1.8009508766
 O         -1.6577575223        1.7733426082        1.8392173479
 C         -2.1140500751        0.4713894152        1.7767409456
 O         -2.1633209487       -0.1118236363        2.8812777049
 O         -2.5994251954        0.2558279149       -1.7944653776
 C         -2.8714812452       -1.5121221640        0.4650285677
 C         -1.7940939005       -2.2292434950       -0.3132857654
 C         -2.0240322862       -3.0078555306       -1.4386396581
 C         -0.9584900488       -3.5417128314       -2.1447152355
 C          0.3460917869       -3.2942242207       -1.7603044812
 C          0.5840904828       -2.5349055285       -0.6187940023
 C         -0.4835580429       -2.0396330299        0.1082753949
 H         -0.2899816936       -1.4552549703        0.9975820810
 N          1.8915389194       -2.2636010005       -0.1812733152
 S          2.1627282172       -0.7986284514        0.6189720901
 O          1.9381422367       -1.0042783576        2.0295252517
 O          1.4209545813        0.2710785436       -0.0054269066
 C          3.9095732302       -0.5884606977        0.3253807695
 C          4.8002641633       -1.3672183055        1.0406065014
 C          6.1572716712       -1.2266265183        0.7976528972
 C          6.5987317380       -0.3146804951       -0.1500169994
 C          5.6933491173        0.4614046889       -0.8577016170
 C          4.3342334485        0.3241688966       -0.6210954233
 H          3.5914213379        0.9082501581       -1.1408714216
 H          6.0389585662        1.1720058792       -1.5910400073
 H          7.6554672267       -0.2060557354       -0.3360965940
 H          6.8642148578       -1.8263182807        1.3478261521
 H          4.4101610006       -2.0531919627        1.7743225053
 H          2.5921299334       -2.4472220852       -0.8863632525
 H          1.1740563941       -3.6813403925       -2.3343932202
 H         -1.1483136200       -4.1386169019       -3.0239428715
 H         -3.0332061620       -3.1792728754       -1.7752120080
 H         -2.8540550748       -1.8815058578        1.5011054010
 C         -4.2636969211       -1.6863740108       -0.0997671662
 C         -5.0563536149       -2.9143828456        0.2306724707
 C         -5.4389194180       -1.5929827897        0.8245392524
 H         -6.3350531956       -1.1061182515        0.4705340958
 H         -5.2335254793       -1.4214527110        1.8714714269
 H         -5.6949050600       -3.3364824492       -0.5303463491
 H         -4.5961949656       -3.6456801594        0.8779345152
 H         -4.3692357838       -1.2561101888       -1.0884636843
