  62
        -98.93490251
 C         -2.4251266209       -1.3304418189        0.4655869103
 C         -2.4545571105       -0.4793758392       -0.6637938299
 C         -3.4120763001        0.6489255211       -0.6238591604
 C         -4.1619241602        0.8312177917        0.4779506795
 C         -5.1763800699        1.9089703221        0.7558640990
 C         -4.5307137895        3.2614504320        1.0952982187
 C         -3.3689831593        3.6629676313        0.1901935088
 H         -2.9356015990        4.5825284313        0.5928856286
 H         -2.5930544595        2.8958438111        0.2364976291
 C         -3.7400586890        3.9211938710       -1.2682858414
 H         -2.8416546788        4.2921539706       -1.7686698213
 H         -4.4941451487        4.7102035913       -1.3116354417
 C         -4.2533531393        2.7117268210       -2.0530376111
 H         -4.2287427290        2.9792587907       -3.1133732712
 H         -5.2914369494        2.4978036814       -1.8130208012
 C         -3.4078222897        1.4509263307       -1.9029953906
 H         -3.6916439198        0.7453534206       -2.6933623504
 H         -2.3576290596        1.6958174504       -2.1023669205
 H         -5.3036731093        4.0309701222        1.0609024884
 H         -4.1521324597        3.2088413721        2.1191176188
 H         -5.8576886698        2.0057317721       -0.0841022011
 H         -5.7570363001        1.5756355725        1.6189410490
 O         -4.0516566606        0.0209709020        1.5705093497
 C         -3.1916144110       -1.0585268383        1.6003834202
 O         -3.1910036513       -1.6855944280        2.6792712003
 O         -1.7243602004       -0.6355580197       -1.6763797298
 C         -1.5029207913       -2.5354995992        0.5412731908
 C         -0.1174472711       -2.1565799297        0.0781491009
 C          0.5284729089       -2.7482593703       -0.9986194788
 C          1.7986093790       -2.3367064008       -1.3627544188
 C          2.4536572393       -1.3407526708       -0.6621365390
 C          1.8144172293       -0.7376601603        0.4133835108
 C          0.5424038191       -1.1524874397        0.7764584807
 H          0.0398974291       -0.6780965393        1.6117872105
 N          2.4745629895        0.2605781097        1.1494009506
 S          3.3032360100        1.4708523992        0.3371609704
 O          3.3752190902        2.5665517395        1.2801168500
 O          2.7082393503        1.7681510891       -0.9449953298
 C          4.9336710098        0.7890100887        0.1176832508
 C          5.5249214800        0.8055720181       -1.1302911391
 C          6.7989644299        0.2784727577       -1.2753844788
 C          7.4558947695       -0.2516400722       -0.1756354686
 C          6.8492820394       -0.2578415817        1.0716768214
 C          5.5765790595        0.2685348088        1.2237991910
 H          5.0713687194        0.2835387692        2.1750528009
 H          7.3628201991       -0.6713997416        1.9246073116
 H          8.4463145394       -0.6626902426       -0.2912701183
 H          7.2719017100        0.2827811272       -2.2442806087
 H          4.9727572703        1.2212406080       -1.9582588793
 H          1.9242126195        0.6446103101        1.9035511504
 H          3.4403492294       -1.0154812412       -0.9485520489
 H          2.2863845190       -2.7980795112       -2.2079031786
 H          0.0267081387       -3.5107925403       -1.5708189487
 H         -1.4403526615       -2.7726420489        1.6165863309
 C         -2.0482830916       -3.7808181992       -0.1417117289
 C         -3.5246311817       -4.0196389587       -0.2423090290
 C         -2.7253673914       -3.7371306894       -1.4771214990
 H         -2.5480158516       -4.5490702396       -2.1672832087
 H         -2.8305895010       -2.7753515895       -1.9530281693
 H         -3.8936844020       -5.0217471686       -0.0835777288
 H         -4.1829597615       -3.2482996984        0.1310055606
 H         -1.4361282319       -4.6530622293        0.0658690614
