  62
        -98.94541400
 C         -2.5278814127       -0.3717611208        0.1061041333
 C         -2.4213443513        0.5718723507        1.1623945095
 C         -2.3023872094        1.9787850509        0.7745832732
 C         -2.3241485415        2.3110331557       -0.5283345420
 C         -2.1873208843        3.6989807379       -1.0914016431
 C         -0.7272054950        4.1512622225       -1.2361653659
 C         -0.0275674509        4.5123196454        0.0750841389
 H          0.8920939191        5.0382599384       -0.1890566489
 H         -0.6508945634        5.2059470719        0.6411087530
 C          0.3330955571        3.3029230803        0.9493735736
 H          0.3110102789        2.3972657975        0.3370356752
 H          1.3580232669        3.4138224880        1.3127437578
 C         -0.5633315652        3.1137503981        2.1741629357
 H         -0.4247028319        3.9524742664        2.8604349459
 H         -0.2526837151        2.2004519726        2.6880105333
 C         -2.0586489674        2.9883934478        1.8553224411
 H         -2.5726705338        2.6420778232        2.7554384110
 H         -2.4661804565        3.9575035444        1.5689145049
 H         -0.1648282700        3.3582631283       -1.7371048524
 H         -0.7185747994        5.0301328451       -1.8856285337
 H         -2.6441599102        3.6814839332       -2.0833298031
 H         -2.7325045410        4.4085284247       -0.4681010158
 O         -2.4890427752        1.3884373625       -1.5091534498
 C         -2.5264642579        0.0304405408       -1.2293804186
 O         -2.5787612180       -0.6797738402       -2.2567786993
 H         -0.6883751576       -1.7388449620       -1.4846094809
 C         -0.2341749550       -2.0614198600       -0.5588191743
 C         -1.0215471828       -2.2253080863        0.5724824342
 C         -0.4092757966       -2.6320926074        1.7515857855
 C          0.9581820919       -2.8453942845        1.8008387787
 C          1.7460383483       -2.6201380635        0.6852266445
 C          1.1386210240       -2.2211426349       -0.4973155776
 N          1.9536325747       -1.8611801978       -1.6099879294
 S          2.2738738789       -0.1993773849       -1.5480940138
 O          1.0918993828        0.5638412597       -1.2108672943
 O          2.9026940449        0.1305365381       -2.8091218310
 C          3.4592848578       -0.1050268005       -0.2269813598
 C          3.0395625164        0.2784493634        1.0312625186
 C          3.9620938563        0.3007761262        2.0655421164
 C          5.2785709866       -0.0619458381        1.8240989575
 C          5.6837726035       -0.4444938827        0.5538273044
 C          4.7664299708       -0.4695669670       -0.4844315593
 H          5.0335686572       -0.7556869323       -1.4881736926
 H          6.7084548930       -0.7248391676        0.3705530878
 H          5.9927977987       -0.0455315056        2.6321326705
 H          3.6465645333        0.5965767126        3.0531496401
 H          2.0051530268        0.5496689204        1.1745857491
 H          1.4943635675       -2.0467106466       -2.4929560854
 H          2.8164067600       -2.7415342811        0.7208741802
 H          1.4185457328       -3.1601345104        2.7245004754
 H         -1.0092449198       -2.7489257335        2.6419074198
 C         -2.4801544395       -1.8353327653        0.5221819601
 H         -2.8727907449       -1.8651564261        1.5476028934
 C         -3.2936631934       -2.7812494347       -0.3333676469
 C         -3.7034831703       -4.1032613223        0.2417496788
 C         -4.7287597409       -3.0343353366        0.0143966238
 H         -5.4370227985       -3.1561043738       -0.7910847041
 H         -5.1319103601       -2.5217806263        0.8755438948
 H         -3.7075397041       -4.9659604121       -0.4063762745
 H         -3.4138610766       -4.3176814688        1.2591563034
 H         -3.0387562460       -2.7447875533       -1.3841889034
 O         -2.4187879208        0.2437989335        2.3790259713
