  62
        -98.94123916
 C         -1.8172438402       -1.2769975692       -0.1022346402
 C         -0.8961907906       -1.7131721288       -1.0860393508
 C          0.2163263091       -2.5767756897       -0.6480065019
 C          0.2895928192       -2.9175488309        0.6517670778
 C          1.3634956790       -3.7101218020        1.3477657068
 C          2.6327004795       -2.8766733528        1.5851303372
 C          3.1052327196       -2.0668501420        0.3804173378
 H          3.9587714900       -1.4642961127        0.7043167781
 H          2.3176818499       -1.3660079914        0.0978088986
 C          3.5370747189       -2.8818815212       -0.8367208730
 H          4.3493354286       -3.5516486119       -0.5460495138
 H          3.9338184690       -2.1749766008       -1.5696095425
 C          2.4441546283       -3.7095456401       -1.5177862434
 H          2.2444677580       -4.6256623105       -0.9684723442
 H          2.8297856379       -4.0123510494       -2.4955779138
 C          1.1437115486       -2.9566501192       -1.7774732224
 H          0.5333007581       -3.5443563983       -2.4739043928
 H          1.3734962689       -2.0259326189       -2.3065313917
 H          3.4287756193       -3.5456268535        1.9178052164
 H          2.4234819101       -2.1659973034        2.3897883079
 H          1.5904470284       -4.6147570117        0.7915022160
 H          0.9574086592       -4.0058081727        2.3178653167
 O         -0.6439797403       -2.5165160212        1.5577879084
 C         -1.6854727200       -1.6643877204        1.2324020494
 O         -2.4023264796       -1.3591643509        2.2057976599
 O         -0.9862247108       -1.3752161577       -2.2987792805
 C         -2.8717001098       -0.2867677083       -0.5614991091
 C         -2.3484352591        1.1308988913       -0.4638952380
 C         -2.7381799188        2.1029250723       -1.3793234771
 C         -2.2202493682        3.3834154120       -1.3097223861
 C         -1.2725257178        3.7104360307       -0.3551558961
 C         -0.8754974380        2.7468706797        0.5633218330
 C         -1.4430909086        1.4812512701        0.5252842321
 H         -1.1388241588        0.7566849493        1.2642511114
 N          0.1184663624        3.0126376984        1.5246116930
 S          1.4329456719        1.9732014077        1.6031036017
 O          1.0246759514        0.6741411975        2.0685357307
 O          2.3980187025        2.6742220965        2.4224044520
 C          2.0277228014        1.8803720889       -0.0754933785
 C          1.4105634307        1.0202750299       -0.9611862691
 C          1.8211678204        1.0095786909       -2.2846240292
 C          2.8466487107        1.8461010307       -2.6966361688
 C          3.4645638013        2.6979856196       -1.7930751882
 C          3.0471076317        2.7241595187       -0.4722349181
 H          3.4971013222        3.3706082579        0.2638020424
 H          4.2649457016        3.3443880495       -2.1152487279
 H          3.1644342704        1.8314678315       -3.7271747589
 H          1.3222425199        0.3493380217       -2.9774460497
 H          0.6195940305        0.3725229000       -0.6167849494
 H          0.4431199128        3.9697359283        1.5262604937
 H         -0.8402930573        4.6988599405       -0.3226363653
 H         -2.5353307380        4.1289163028       -2.0233509154
 H         -3.4411686892        1.8459788833       -2.1566886871
 H         -3.0329147602       -0.5010515773       -1.6279418192
 C         -4.2011812597       -0.4057908283        0.1559421412
 C         -5.4685015797       -0.0596030770       -0.5645676782
 C         -5.1571097003       -1.4891605575       -0.2405619495
 H         -5.7194548403       -1.9848203479        0.5360305402
 H         -4.8612048608       -2.1427630869       -1.0483064701
 H         -6.2530391693        0.4339036229       -0.0121144675
 H         -5.3968158498        0.2465114838       -1.5968826979
 H         -4.1383930793       -0.1654108392        1.2096047414
