  62
        -98.94120301
 C         -2.7789661057       -0.4747476336       -0.2846370520
 C         -2.1030464172        0.4509764267       -1.1160721034
 C         -2.3070906733        1.8694128806       -0.7953308873
 C         -3.1020516610        2.2244758138        0.2288867128
 C         -3.4007624148        3.6292863196        0.6761128445
 C         -2.3356796337        4.2223834175        1.6091044256
 C         -1.0132649797        4.5954791398        0.9374311810
 H         -1.2126265107        5.2215966881        0.0671275001
 H         -0.4513240463        5.1991626219        1.6527741346
 C         -0.1495436413        3.3954253819        0.5239990788
 H          0.8855566598        3.5661521759        0.8302919222
 H         -0.4806122382        2.4988831305        1.0548314096
 C         -0.1401931392        3.1071155027       -0.9773216193
 H          0.4524819455        2.2031975034       -1.1424277402
 H          0.3411125959        3.9322796594       -1.5072853094
 C         -1.5297080947        2.8786364784       -1.5859412557
 H         -2.0749104348        3.8199336031       -1.6439894084
 H         -1.4006804653        2.4831623419       -2.5963694275
 H         -2.7595890537        5.1254330372        2.0544930919
 H         -2.1434081723        3.5118172431        2.4167341136
 H         -3.5247730906        4.2741575329       -0.1942364811
 H         -4.3482456733        3.5884463044        1.2176474138
 O         -3.7576423979        1.3084855777        0.9893795913
 C         -3.5910882297       -0.0475967278        0.7718199459
 O         -4.2227610384       -0.7706339043        1.5685429681
 H         -0.1078563738       -1.3587223778       -1.1488673150
 C         -0.1218788880       -1.9695657552       -0.2582652655
 C         -1.3388248013       -2.4070352910        0.2449518987
 C         -1.3390339160       -3.1730563145        1.4043520955
 C         -0.1513012678       -3.4800068995        2.0466049999
 C          1.0576049221       -3.0211367005        1.5542326435
 C          1.0654281691       -2.2556014781        0.3960038660
 N          2.2893674210       -1.7408698562       -0.0975509962
 S          3.0010743099       -0.6400876233        0.9782306290
 O          3.6690161927       -1.3955957736        2.0087597929
 O          2.0181374922        0.3179636392        1.4347022318
 C          4.2026678441        0.1521794637       -0.0719336715
 C          3.8634085385        1.3344351652       -0.7013644209
 C          4.7852420602        1.9327036959       -1.5458119080
 C          6.0220760997        1.3386082113       -1.7474362536
 C          6.3476177351        0.1512628528       -1.1085733844
 C          5.4306642515       -0.4517503737       -0.2623963587
 H          5.6406388415       -1.3695654495        0.2611216765
 H          7.3111725432       -0.3053938293       -1.2669858549
 H          6.7371590272        1.8064691682       -2.4054648048
 H          4.5341148549        2.8565223408       -2.0416802680
 H          2.8923688217        1.7641290411       -0.5093031511
 H          2.1354432768       -1.2672612838       -0.9801957216
 H          1.9864541879       -3.2200641949        2.0640901105
 H         -0.1681792501       -4.0716617530        2.9496673821
 H         -2.2809971679       -3.5041268327        1.8177147668
 C         -2.6298942423       -1.9849292146       -0.4159437264
 H         -3.4591795732       -2.4183264442        0.1586208591
 C         -2.7231728307       -2.4822516622       -1.8444100906
 C         -3.0602159571       -3.9213416597       -2.0883206974
 C         -4.0621699125       -2.8525242796       -2.4041360151
 H         -4.2678032800       -2.6243106150       -3.4390798200
 H         -4.9205435382       -2.7496713271       -1.7560049189
 H         -2.5764567248       -4.4313728517       -2.9070227761
 H         -3.2403532530       -4.5453699973       -1.2259690710
 H         -2.0203711673       -2.0074799718       -2.5154196944
 O         -1.3567582162        0.1413029500       -2.0842384731
