  62
        -98.93635654
 C         -1.7250435583       -0.2128564145       -0.2695796175
 C         -2.7728936862       -1.0503417890        0.1740281880
 C         -4.1350268417       -0.4868889509        0.1315497443
 C         -4.3084543763        0.7627684116       -0.3354166096
 C         -5.5871863205        1.5502916281       -0.4722436313
 C         -6.8007195149        0.8012819220       -1.0444099198
 C         -7.8948770004        0.5351438203       -0.0090470850
 H         -7.9859780779        1.4134755821        0.6334010826
 H         -8.8469347298        0.4132981665       -0.5304440164
 C         -7.6811103568       -0.7046869074        0.8575737882
 H         -7.8408084815       -1.5999416545        0.2527107364
 H         -8.4467615829       -0.6987932444        1.6369597775
 C         -6.3065695335       -0.8098717563        1.5212024609
 H         -6.4052105860       -1.4640122972        2.3901433292
 H         -5.9856516342        0.1633405642        1.8908032739
 C         -5.2261336594       -1.4072159608        0.6072836507
 H         -4.6994574038       -2.2078397708        1.1359577796
 H         -5.6925524746       -1.8792968052       -0.2622396018
 H         -7.2293735176        1.4184902328       -1.8357043708
 H         -6.4777727605       -0.1317118975       -1.5035914040
 H         -5.8392140885        1.9741955354        0.5030359975
 H         -5.3317961660        2.3923058516       -1.1196305121
 O         -3.2643387485        1.5367678961       -0.7511177499
 C         -1.9568452463        1.0822635651       -0.7294915716
 O         -1.1180534517        1.9073828542       -1.1379838830
 O         -2.5798339964       -2.2220053250        0.5981545029
 C         -0.3018065957       -0.7417065473       -0.2559532296
 C          0.5737481193        0.1587954926        0.5777125879
 C          0.1680921539        0.4628684033        1.8759328304
 C          0.9162477190        1.3059861019        2.6723767262
 C          2.0947763434        1.8550568185        2.1970835394
 C          2.5143374576        1.5502844129        0.9087190719
 C          1.7611674985        0.6980502610        0.1099889863
 H          2.1031345266        0.4946116338       -0.8907471563
 N          3.7017340664        2.0954278384        0.4025901661
 S          4.6780865275        1.2117941594       -0.6176823855
 O          5.9877122229        1.8110178208       -0.4678994842
 O          4.1464358191        1.2020337495       -1.9571591102
 C          4.6929628960       -0.4468884565        0.0427620056
 C          4.5147051090       -1.5135620106       -0.8132383826
 C          4.5385429064       -2.8006727521       -0.2999428278
 C          4.7375622188       -2.9975549715        1.0573212022
 C          4.9213175410       -1.9156987915        1.9049287439
 C          4.9026957672       -0.6275172165        1.3958537866
 H          5.0499407094        0.2292218889        2.0326249382
 H          5.0776964036       -2.0721026503        2.9600717177
 H          4.7505952956       -3.9995070409        1.4564756250
 H          4.3987953226       -3.6418792431       -0.9600364192
 H          4.3557367589       -1.3145302653       -1.8605112470
 H          4.2319754052        2.6569122114        1.0515946263
 H          2.6772352647        2.5235101473        2.8126631426
 H          0.5826213193        1.5387524153        3.6723384348
 H         -0.7545648090        0.0364918785        2.2452491775
 H         -0.3592531267       -1.7223651296        0.2391509061
 C          0.1908249995       -0.9414697439       -1.6730654022
 C          1.2180399349       -1.9888922974       -1.9765629396
 C         -0.2040971961       -2.1887315330       -2.4039303298
 H         -0.4449538847       -2.1172687141       -3.4540377539
 H         -0.8056379129       -2.9065156941       -1.8656514355
 H          1.9543562416       -1.7753006360       -2.7365203349
 H          1.5894885885       -2.5774752738       -1.1516305331
 H          0.2192237025       -0.0173705890       -2.2406949131
