  62
        -98.93678361
 C         -2.4103204334       -1.0860745706       -0.1449763186
 C         -2.4794471898        0.1797164021        0.4878784267
 C         -3.8317073096        0.6434889319        0.8423229061
 C         -4.8902072009       -0.1516245173        0.6072325078
 C         -6.3209909076        0.2210162345        0.8639511580
 C         -6.9555627029        0.8691976147       -0.3745506425
 C         -6.1143031097        1.9900036281       -0.9854636243
 H         -5.1907704157        1.5658509317       -1.3865768057
 H         -6.6749210584        2.3938174809       -1.8313222534
 C         -5.7679374132        3.1255501900       -0.0123629482
 H         -5.9298560512        4.0802196697       -0.5171672836
 H         -6.4390531464        3.0951704992        0.8466772341
 C         -4.3184596267        3.1214520910        0.4773076854
 H         -4.1252353731        4.0749259498        0.9760789502
 H         -3.6423765030        3.0592080714       -0.3795422842
 C         -3.9501187870        2.0064397691        1.4644404124
 H         -2.9606010437        2.2351497496        1.8713363746
 H         -4.6663584630        1.9931811076        2.2883843839
 H         -7.0996209663        0.0970779874       -1.1338969178
 H         -7.9363127750        1.2587285068       -0.0958909356
 H         -6.8733465051       -0.6869694392        1.1114880796
 H         -6.3667956348        0.9049900721        1.7090527556
 O         -4.7765906243       -1.3889995660        0.0596634880
 C         -3.5438143152       -1.8816462838       -0.3333155994
 O         -3.5846267883       -3.0295905715       -0.8195271663
 H          1.2966328311       -0.2663374012       -0.7022142242
 C          1.1303875084       -0.7722193614        0.2340798998
 C         -0.0281167613       -1.4993387543        0.4516076449
 C         -0.2117808431       -2.1062596980        1.6919136362
 C          0.7395705868       -1.9857031504        2.6855623788
 C          1.9052908754       -1.2754909105        2.4574128410
 C          2.0945651635       -0.6603370686        1.2262128655
 N          3.2528370849        0.0910143790        0.9710610035
 S          3.8959535661        0.0726540008       -0.5880265106
 O          3.2379086299        1.0762479939       -1.3860355029
 O          3.8779433460       -1.2736043418       -1.1161493408
 C          5.5724811124        0.5808019664       -0.2510183060
 C          5.8316914371        1.9250064989       -0.0589530195
 C          7.1266600143        2.3221562493        0.2336886018
 C          8.1353688117        1.3746656977        0.3288620369
 C          7.8606162924        0.0298874953        0.1311164148
 C          6.5671311972       -0.3744686378       -0.1601199401
 H          6.3077670790       -1.4072118604       -0.3291760063
 H          8.6474763762       -0.7036721081        0.2020335510
 H          9.1424937988        1.6869754499        0.5557048804
 H          7.3445209288        3.3670139968        0.3854129693
 H          5.0178831266        2.6252903636       -0.1521294409
 H          3.9665307198       -0.0282920323        1.6765559636
 H          2.6539263757       -1.1868246263        3.2301117315
 H          0.5792258099       -2.4581870837        3.6432011121
 H         -1.1193076569       -2.6694843142        1.8659638857
 C         -1.0901627585       -1.6793102245       -0.6047600223
 H         -1.2819825227       -2.7617499737       -0.6998195325
 C         -0.6438143993       -1.1977538319       -1.9774862101
 C         -1.6410691722       -0.8197968799       -3.0304480500
 C         -0.7755674570        0.2312974354       -2.4062958683
 H          0.0231532023        0.6633232276       -2.9923658956
 H         -1.2210825246        0.9223126022       -1.7081476916
 H         -1.4447992270       -1.1121029048       -4.0510119631
 H         -2.6870004119       -0.8488122153       -2.7606088642
 H          0.2417018944       -1.7257849312       -2.3215984086
 O         -1.4787180218        0.8959479967        0.7486676179
