  62
        -98.94038787
 C         -1.1614907800       -1.0328862694       -0.5170055664
 C         -2.3245027864       -1.2559030964        0.2610789758
 C         -3.1561384350       -0.0855866074        0.5857191347
 C         -2.7743629714        1.1302450145        0.1533134927
 C         -3.3749653605        2.5028731256        0.3769089054
 C         -4.7926522790        2.6557915585        0.9220144077
 C         -5.8961167904        2.1808880335       -0.0228794253
 H         -6.8491572536        2.2452265091        0.5066124615
 H         -5.9414777721        2.8642130366       -0.8745226710
 C         -5.7280395563        0.7674438499       -0.5744896030
 H         -4.8259835008        0.7180432385       -1.1875972524
 H         -6.5769831346        0.5624414569       -1.2322505130
 C         -5.6751167170       -0.3416274925        0.4743724701
 H         -5.7179443636       -1.2971637765       -0.0550533686
 H         -6.5521851151       -0.2785842812        1.1213655851
 C         -4.4149321270       -0.3600692123        1.3573715505
 H         -4.5076212007        0.3263908985        2.1960500843
 H         -4.3060181516       -1.3670259807        1.7709491018
 H         -4.9447623076        3.7244675744        1.0969341457
 H         -4.8787181585        2.1649822876        1.8870496704
 H         -3.3038876592        3.0205091443       -0.5851225218
 H         -2.6844638594        3.0165008443        1.0560066568
 O         -1.6436671629        1.3011323089       -0.5878279050
 C         -0.8104807161        0.2493087169       -0.9369114431
 O          0.1699499523        0.6056119148       -1.6187683019
 O         -2.6589918636       -2.4001307026        0.6740101299
 C         -0.2954161574       -2.2476912131       -0.8062670494
 C          0.7847748587       -2.3639837087        0.2431382055
 C          0.9196518744       -3.5114880616        1.0152877865
 C          1.8867718907       -3.5838132949        2.0024588453
 C          2.7172723852       -2.5067575820        2.2540599805
 C          2.5890957930       -1.3547414248        1.4860041108
 C          1.6480391095       -1.3016126969        0.4698531088
 H          1.5594058041       -0.4057550824       -0.1226109269
 N          3.4051226327       -0.2367531963        1.7103883779
 S          2.7673686053        1.3007602480        1.5093994747
 O          3.6351280517        2.1483157923        2.3054405867
 O          1.3654034634        1.3502677259        1.8593914890
 C          3.0315981752        1.6949811651       -0.2043806533
 C          2.1940126128        2.6094872210       -0.8082210815
 C          2.4317212088        2.9675873685       -2.1253215210
 C          3.4967369238        2.4069543140       -2.8111616190
 C          4.3302380413        1.4903099408       -2.1889358261
 C          4.1008095542        1.1309452956       -0.8710051326
 H          4.7241542376        0.4166367653       -0.3592077914
 H          5.1551163589        1.0517112757       -2.7274621000
 H          3.6744189417        2.6831719142       -3.8387844481
 H          1.7766514157        3.6727547281       -2.6112111955
 H          1.3633999331        3.0076435300       -0.2469714594
 H          4.0037251076       -0.2935124282        2.5215345590
 H          3.4535166540       -2.5509458669        3.0420981130
 H          1.9820021171       -4.4801870535        2.5962943968
 H          0.2469124563       -4.3405691014        0.8529479018
 H         -0.9622105983       -3.1140328153       -0.6969032005
 C          0.3022208692       -2.2719314642       -2.1986210589
 C          0.7096718127       -3.5865975008       -2.7908712800
 C         -0.4875192582       -2.8615602474       -3.3268292591
 H         -0.4210571477       -2.3955347242       -4.2982254477
 H         -1.4673999414       -3.2553628188       -3.0986005160
 H          1.6021846686       -3.6223621993       -3.3959691515
 H          0.5405991369       -4.4754786522       -2.2022755369
 H          0.9137007660       -1.4067974033       -2.4181519011
