  62
        -98.93962339
 C         -2.6257512836       -1.2511469322        0.1035915533
 C         -2.7852952964       -0.2777154933       -0.9119055434
 C         -4.1475601528        0.2431091727       -1.0814946308
 C         -5.1483118343       -0.2366120717       -0.3208223039
 C         -6.5922997962        0.1805746702       -0.3916359590
 C         -6.9159952031        1.4424764701        0.4199147156
 C         -6.3873301920        2.7498241360       -0.1716514046
 H         -6.7005479887        2.8291113997       -1.2130747690
 H         -6.8654984134        3.5647835559        0.3754128668
 C         -4.8642978646        2.9187833229       -0.0761450089
 H         -4.6304356152        3.9241049024        0.2815452918
 H         -4.4641241452        2.2182716868        0.6607039436
 C         -4.1192669691        2.7244150404       -1.3969558929
 H         -4.4106164507        3.5077884442       -2.1001747100
 H         -3.0479590273        2.8256928557       -1.2035168623
 C         -4.3541180890        1.3602480705       -2.0589132017
 H         -5.3555893188        1.3155933898       -2.4861732598
 H         -3.6228627606        1.2389178497       -2.8616358024
 H         -6.5248893818        1.3165235165        1.4322671751
 H         -8.0037579353        1.5145101718        0.4908171449
 H         -6.8801296943        0.3315998554       -1.4322608466
 H         -7.1757330153       -0.6484814533        0.0145202420
 O         -4.9576940733       -1.2001814030        0.6201412943
 C         -3.6935543904       -1.7075728393        0.8749768383
 O         -3.6519880378       -2.5485434257        1.7966240871
 H          1.3053794764       -1.3731610031       -0.5528116575
 C          0.9805004564       -0.6251265187        0.1536003228
 C         -0.2846958051       -0.7060809713        0.7122551576
 C         -0.6665170122        0.2667661805        1.6324793437
 C          0.1843234153        1.3043480188        1.9600363525
 C          1.4381664012        1.3952423482        1.3813558045
 C          1.8363324195        0.4226073368        0.4756837730
 N          3.1028966479        0.5104139247       -0.1278851280
 S          4.4079578221        0.9585016443        0.8454662983
 O          4.3775612373        0.2181826315        2.0872514092
 O          4.4175526245        2.3945526893        0.9699668040
 C          5.7770889314        0.4282183448       -0.1642301941
 C          6.2140523167        1.2555848907       -1.1813314686
 C          7.2601314042        0.8319364097       -1.9854607171
 C          7.8474090421       -0.4045481953       -1.7613912899
 C          7.3982899294       -1.2233856810       -0.7361801335
 C          6.3517291448       -0.8064635296        0.0712316988
 H          5.9762980946       -1.4057711171        0.8852168036
 H          7.8586630097       -2.1827688379       -0.5629003288
 H          8.6619858111       -0.7313234034       -2.3882767369
 H          7.6137730074        1.4661221049       -2.7822846493
 H          5.7332284795        2.2108205358       -1.3127703697
 H          3.3201473188       -0.3065373505       -0.6821541218
 H          2.1117854178        2.2007579723        1.6259543574
 H         -0.1304390242        2.0534722337        2.6716486369
 H         -1.6468947358        0.2002412618        2.0858597072
 C         -1.2491199598       -1.8222288287        0.3885581560
 H         -1.3576806114       -2.4481296932        1.2867643835
 C         -0.8049180153       -2.6982768966       -0.7646870252
 C          0.1189330152       -3.8539782164       -0.5262674554
 C         -1.3244385619       -4.1010766039       -0.8444780456
 H         -1.5792310065       -4.5025533463       -1.8137489580
 H         -1.9776305731       -4.4317755542       -0.0499218771
 H          0.8541309915       -4.0922902720       -1.2803286371
 H          0.4507901323       -4.0283598527        0.4862567015
 H         -0.7110607781       -2.1457632097       -1.6926935793
 O         -1.8442946561        0.1340724445       -1.6384843542
