  62
        -98.94498032
 C          2.0537376084        1.3438930970        0.0335189058
 C          2.6294835566        0.6628188677        1.1324621833
 C          3.8135918469       -0.1495980983        0.8341885334
 C          4.2829754809       -0.2070519298       -0.4257205084
 C          5.4953594625       -0.9717278056       -0.8834530569
 C          5.2218777172       -2.4511111582       -1.1874856749
 C          4.9856629819       -3.3340542984        0.0385519333
 H          5.0206686191       -4.3709709815       -0.3015021588
 H          5.8028135415       -3.1961876571        0.7473066172
 C          3.6437798103       -3.0918633548        0.7438962555
 H          3.1674843211       -4.0510817729        0.9603264761
 H          2.9737823411       -2.5478157141        0.0733145123
 C          3.7519491925       -2.3301764421        2.0652358147
 H          2.7434723539       -2.1866195437        2.4621152028
 H          4.3138295652       -2.9275904316        2.7865489060
 C          4.4165005130       -0.9519275687        1.9477912192
 H          4.2459074273       -0.4087834060        2.8805265871
 H          5.4901097349       -1.0639905106        1.7993524140
 H          6.0895342889       -2.8392439886       -1.7258891652
 H          4.3599027142       -2.5170644753       -1.8557009141
 H          5.8377982916       -0.4899646671       -1.8017841071
 H          6.2836309679       -0.8925404085       -0.1343339927
 O          3.6978950750        0.4582644473       -1.4562110803
 C          2.5564470845        1.2249158126       -1.2624987348
 O          2.1039632899        1.7393703687       -2.3017470685
 H         -0.0100703878       -0.3190786445        0.4633931044
 C         -0.6333438432        0.2315666568       -0.2304284799
 C         -0.3566925805        1.5737520880       -0.4658185633
 C         -1.1738247349        2.2733729900       -1.3427255673
 C         -2.2163767123        1.6322917929       -1.9912918448
 C         -2.4741402249        0.2923231417       -1.7719436629
 C         -1.6764213118       -0.4116528978       -0.8773004331
 N         -1.9434011531       -1.7678979423       -0.6274494218
 S         -3.5380894646       -2.2282447937       -0.4127165516
 O         -3.4829556977       -3.3926958390        0.4432624784
 O         -4.1641068632       -2.4228909198       -1.6969003809
 C         -4.3160535541       -0.8636049070        0.4340887555
 C         -5.3914933556       -0.2198490650       -0.1431210585
 C         -5.9641375687        0.8544438697        0.5189035514
 C         -5.4509369898        1.2665242427        1.7386691174
 C         -4.3721816002        0.6068098975        2.3077794146
 C         -3.7975100903       -0.4694262134        1.6517091284
 H         -2.9601643807       -1.0043942759        2.0709795485
 H         -3.9735049978        0.9282442481        3.2566937497
 H         -5.8931999989        2.1063506618        2.2507896636
 H         -6.8042404184        1.3678676187        0.0798722250
 H         -5.7554119277       -0.5711812221       -1.0949203165
 H         -1.3417720613       -2.1858343164        0.0665091396
 H         -3.2696699075       -0.2235850528       -2.2846721417
 H         -2.8349894157        2.1846183875       -2.6818026901
 H         -0.9880263302        3.3177133427       -1.5300202254
 C          0.8123924397        2.1873316231        0.2651734097
 H          0.6122266177        2.1150303124        1.3445772134
 C          1.0665309368        3.6369888464       -0.0857693574
 C          0.2717022969        4.7195454874        0.5793525126
 C          1.7146807719        4.5247259778        0.9326903781
 H          2.4342342665        5.2555894822        0.5953695636
 H          1.9544959285        4.0886878330        1.8915969700
 H         -0.4713503272        4.4202795688        1.3027098172
 H          0.0001782514        5.5895923364        0.0010982379
 H          1.3553482510        3.7724947083       -1.1216139385
 O          2.1717166431        0.7268706393        2.3057958639
