  62
        -98.94077741
 C         -1.7239177300       -0.3042596515        0.5285079445
 C         -2.9308132899       -0.4126066020        1.2656844772
 C         -4.1418008187       -0.6943080584        0.4874284679
 C         -4.0594474564       -0.8205304656       -0.8492760236
 C         -5.1991501374       -1.1307744013       -1.7814105601
 C         -6.0196626533        0.0985187134       -2.1952394036
 C         -6.9221322550        0.6761911379       -1.1041554633
 H         -7.5943736343        1.3876256725       -1.5880153373
 H         -7.5383401983       -0.1194854543       -0.6842543630
 C         -6.1703186102        1.3972380420        0.0234625194
 H         -6.6609654120        2.3494708431        0.2377290964
 H         -5.1546387910        1.6284694794       -0.3061074971
 C         -6.0992278390        0.6192601454        1.3375334277
 H         -5.5154466174        1.2052588988        2.0521587693
 H         -7.1049393612        0.4967795473        1.7457142433
 C         -5.4488028655       -0.7651741236        1.2178587574
 H         -5.2473888032       -1.1367532342        2.2256542312
 H         -6.1266778355       -1.4573040892        0.7186101395
 H         -5.3347165283        0.8725177607       -2.5492568519
 H         -6.6490709690       -0.1984217898       -3.0373328849
 H         -5.8561300456       -1.8707809684       -1.3234616503
 H         -4.7560207102       -1.5664391195       -2.6794461194
 O         -2.8871772733       -0.6911753382       -1.5228667649
 C         -1.6961198506       -0.4072248050       -0.8633907685
 O         -0.7204838651       -0.2800658971       -1.6249819089
 O         -2.9923921345       -0.2774575316        2.5168459391
 C         -0.4544088018        0.0055795062        1.3008428951
 C          0.3010491677        1.1297231131        0.6388849405
 C         -0.3408893447        2.3539037529        0.4645332803
 C          0.3030699810        3.4097622820       -0.1484414462
 C          1.6122699850        3.2769874680       -0.5783958365
 C          2.2647298029        2.0645541824       -0.4014373310
 C          1.6069516503        0.9984481264        0.1969379378
 H          2.1244397319        0.0596955998        0.2981629638
 N          3.5892015562        1.8883355529       -0.8293866907
 S          4.6624992025        1.0664878170        0.1552550083
 O          4.3602615985        1.2676931129        1.5537190605
 O          5.9707166242        1.5097871391       -0.2791819406
 C          4.4740683420       -0.6510860898       -0.2714163029
 C          4.4835724891       -1.5964817209        0.7349074999
 C          4.3901064737       -2.9375327273        0.3969260275
 C          4.2900016976       -3.3073114066       -0.9356275190
 C          4.2813329866       -2.3450421846       -1.9339650445
 C          4.3782451336       -1.0030781001       -1.6029037399
 H          4.3735177474       -0.2299070678       -2.3527582081
 H          4.1982225825       -2.6365139035       -2.9685650202
 H          4.2144470305       -4.3511771613       -1.1966444635
 H          4.3946603759       -3.6869414270        1.1726746155
 H          4.5530124483       -1.2637222823        1.7584411252
 H          4.0144427543        2.7024141073       -1.2484916641
 H          2.1210464606        4.1029204283       -1.0522788996
 H         -0.2123346922        4.3487398492       -0.2855597009
 H         -1.3611671653        2.4611906126        0.8082551506
 H         -0.8132056389        0.3739902968        2.2774102866
 C          0.4126254861       -1.2100737830        1.5916665308
 C         -0.1934534949       -2.5728435875        1.7383644901
 C          0.6834213974       -2.2657885675        0.5634666076
 H          1.6701464538       -2.7038627161        0.5288516143
 H          0.2266603482       -2.1456968916       -0.4059396204
 H          0.1879158646       -3.2220605376        2.5119505430
 H         -1.2569435084       -2.6673729598        1.5734977784
 H          1.2268343685       -0.9703598401        2.2699837342
