  62
        -98.94402272
 C         -2.5078932925       -1.1522192740       -0.0904162235
 C         -3.2487331474       -0.4111329301        0.8600140651
 C         -4.0437277681        0.7040098473        0.3290176701
 C         -4.0270276891        0.9514459770       -0.9938666473
 C         -4.7444232591        2.0879731716       -1.6618879302
 C         -3.8463413233        3.3290730199       -1.7603867328
 C         -3.1626068267        3.7018381102       -0.4448068619
 H         -2.4556833041        2.9134984465       -0.1745680469
 H         -2.5787238249        4.6069793432       -0.6255294787
 C         -4.1264523559        3.9405794096        0.7260516976
 H         -3.8189748592        4.8458998357        1.2537925784
 H         -5.1341814691        4.1130684168        0.3467308565
 C         -4.1618605717        2.8135412854        1.7601409159
 H         -3.1431797180        2.5753206988        2.0782825280
 H         -4.7002540049        3.1762423868        2.6398291680
 C         -4.8432351296        1.5147761492        1.3100659495
 H         -4.9655251904        0.8812470286        2.1936006189
 H         -5.8335106883        1.7392300865        0.9089222580
 H         -3.0714538407        3.1374186674       -2.5061319864
 H         -4.4524863632        4.1678200872       -2.1070210731
 H         -5.0248754413        1.7729547227       -2.6682182572
 H         -5.6464052506        2.3223011427       -1.1000519846
 O         -3.3041639968        0.2166888112       -1.8765837045
 C         -2.5152899873       -0.8426504991       -1.4508604745
 O         -1.8866604979       -1.4130546087       -2.3608689984
 O         -3.2398186127       -0.6656993083        2.0959233570
 C         -1.6515939165       -2.3107597754        0.3856675934
 C         -0.1973773424       -2.0584070851        0.0687177561
 C          0.6481889804       -3.0266195514       -0.4561131655
 C          1.9775190508       -2.7340521521       -0.7092721784
 C          2.4927488567       -1.4789794869       -0.4448186626
 C          1.6603153902       -0.5064020275        0.0942029594
 C          0.3313672925       -0.8045372104        0.3513687302
 H         -0.3148594970       -0.0451934449        0.7762273428
 N          2.1724928950        0.7763055736        0.3604153872
 S          3.5682478904        0.8902508993        1.2894071704
 O          3.6851208400       -0.2217752008        2.2041198268
 O          3.5194089469        2.2087429414        1.8828800777
 C          4.8859046680        0.8399598055        0.0936899186
 C          5.8766222577       -0.1164292763        0.1997168245
 C          6.8965882938       -0.1308510433       -0.7390602804
 C          6.9077658862        0.8065264585       -1.7605669978
 C          5.9065324106        1.7621946995       -1.8511668097
 C          4.8848236297        1.7829489842       -0.9153861079
 H          4.0904473083        2.5099528513       -0.9477862649
 H          5.9182452675        2.4893332588       -2.6471030286
 H          7.7015074214        0.7926837896       -2.4906769324
 H          7.6759870922       -0.8725874969       -0.6704408729
 H          5.8232275675       -0.8283817223        1.0078747382
 H          1.4765744273        1.4277012527        0.6935143435
 H          3.5249873926       -1.2458378450       -0.6484258461
 H          2.6208164716       -3.4949866619       -1.1239149984
 H          0.2657643032       -4.0106966121       -0.6711187019
 H         -1.7600064095       -2.3228810059        1.4812477584
 C         -2.1758418122       -3.6191908350       -0.1677340119
 C         -2.0058132050       -4.8909935544        0.6066733356
 C         -3.3592366021       -4.2584577413        0.4926356433
 H         -4.1027611924       -4.7336944152       -0.1293298598
 H         -3.7692352268       -3.7632477999        1.3609899644
 H         -1.8223271458       -5.8054277330        0.0630002359
 H         -1.4988762667       -4.8333126091        1.5581435780
 H         -2.1218445997       -3.6637617098       -1.2495698229
