  62
        -98.94115885
 C         -2.1383587956       -1.0313493986       -0.0275729630
 C         -2.7223791768       -0.3458611430        1.0700981880
 C         -3.4535551038        0.8856507248        0.7579887742
 C         -3.5089957109        1.3208895586       -0.5133607914
 C         -4.1825878805        2.5780357969       -0.9928820326
 C         -5.6912166138        2.4302240133       -1.2342404683
 C         -6.5445895825        2.3208234158        0.0299362057
 H         -6.3013039374        3.1438225264        0.7025429128
 H         -7.5854927063        2.4453708715       -0.2748311797
 C         -6.4041127785        0.9856807163        0.7742894518
 H         -7.3948895705        0.6111620178        1.0407303518
 H         -5.9494777939        0.2458848676        0.1114469957
 C         -5.5865152862        1.0616226657        2.0636863786
 H         -6.1007090630        1.6981259583        2.7870140991
 H         -5.5189170590        0.0563112056        2.4868398550
 C         -4.1591949185        1.5922863295        1.8757878456
 H         -4.1772020538        2.6667100127        1.6931550499
 H         -3.5973663981        1.4028659325        2.7936790719
 H         -5.8595563731        1.5545037723       -1.8652543501
 H         -6.0179294854        3.3101848289       -1.7931175200
 H         -4.0034424823        3.3820351962       -0.2781158311
 H         -3.7055714996        2.8436213257       -1.9390134648
 O         -2.9164297634        0.6521358356       -1.5363168764
 C         -2.2236959856       -0.5354539889       -1.3283373402
 O         -1.7486272377       -1.0185729206       -2.3747675157
 H          0.3084056100       -1.0623130698       -1.3959724811
 C          0.7971361974       -1.3229559326       -0.4679637479
 C          0.0777684178       -1.9909154221        0.5146550518
 C          0.7190055193       -2.3089486577        1.7052748981
 C          2.0451265439       -1.9645200409        1.9048802489
 C          2.7558257555       -1.2957477188        0.9242246686
 C          2.1221462391       -0.9715557678       -0.2682824061
 N          2.8358369357       -0.2667601938       -1.2657938377
 S          3.1989092914        1.3276295282       -0.8536597685
 O          2.2034919514        1.8779802683        0.0399653329
 O          3.3902739664        2.0203972505       -2.1092605048
 C          4.7641046120        1.1924991916       -0.0166836043
 C          4.8661394062        1.5460571229        1.3143714790
 C          6.0949911304        1.4286285985        1.9454295405
 C          7.1926043386        0.9621981592        1.2380710139
 C          7.0732389688        0.6125702182       -0.0990204727
 C          5.8482789332        0.7286677884       -0.7362966331
 H          5.7108664686        0.4742172881       -1.7739341387
 H          7.9290401531        0.2502414644       -0.6453794598
 H          8.1469644945        0.8708606731        1.7321651777
 H          6.1896427273        1.6998805984        2.9845824500
 H          3.9831696439        1.8981181164        1.8235069841
 H          2.3492290414       -0.2655263040       -2.1528176880
 H          3.7875255071       -1.0221010423        1.0739875885
 H          2.5293759769       -2.2159043115        2.8359497383
 H          0.1643400098       -2.8104970545        2.4846549343
 C         -1.3798894583       -2.3076857618        0.2982665844
 H         -1.7930726997       -2.6355960343        1.2650850905
 C         -1.6183166340       -3.4279673375       -0.7047695221
 C         -0.5492333786       -4.0025745292       -1.5811124137
 C         -1.0767312875       -4.7998111258       -0.4287705942
 H         -1.7032001600       -5.6552897628       -0.6301431286
 H         -0.4350723166       -4.9121305231        0.4321971374
 H         -0.8281314962       -4.2867046967       -2.5844401190
 H          0.4484974303       -3.5996222205       -1.5068191929
 H         -2.6114400125       -3.3762956722       -1.1392247352
 O         -2.6360952847       -0.7522066932        2.2592355972
