  62
        -98.93582824
 C         -2.3769476264       -0.4818838695        0.9081185940
 C         -3.4284394824       -1.0818679180        0.1703588508
 C         -4.7323267821       -0.3999003535        0.2451145920
 C         -4.8617328001        0.7126981355        0.9882886770
 C         -6.1124160728        1.5351228941        1.0968424799
 C         -6.1407999000        2.6440419496        0.0355927464
 C         -5.8289386363        2.1537776667       -1.3784170607
 H         -5.9074925579        3.0149417027       -2.0455448849
 H         -4.7917843894        1.8123980876       -1.4160800273
 C         -6.7506337378        1.0329287062       -1.8791722727
 H         -7.0541955280        1.2607404890       -2.9031257799
 H         -7.6563904998        0.9997065588       -1.2726894167
 C         -6.1067886208       -0.3545284099       -1.9038640769
 H         -5.1514084119       -0.3055303604       -2.4322181336
 H         -6.7603672363       -1.0225841438       -2.4710409984
 C         -5.8668800513       -1.0033932452       -0.5348010169
 H         -6.7891077308       -0.9837043552        0.0491447232
 H         -5.5895048115       -2.0475412004       -0.7065444770
 H         -7.1268173264        3.1119677817        0.0517502431
 H         -5.4005471578        3.4005247093        0.3063518866
 H         -6.9787648166        0.8864035754        0.9833823568
 H         -6.1382787780        1.9915200254        2.0877666156
 O         -3.8349666841        1.2494095632        1.6971955452
 C         -2.5766684192        0.6751182864        1.6661995575
 O         -1.7266303065        1.2751197272        2.3564163906
 H          1.5326028382       -0.0168102262        1.0560914017
 C          1.1500421847       -0.0412953404        0.0460926541
 C         -0.1309127493       -0.5116403371       -0.2004578627
 C         -0.6063517488       -0.5045649460       -1.5081781577
 C          0.1909900472       -0.0445057910       -2.5402011622
 C          1.4797069204        0.3954413290       -2.2942868001
 C          1.9614686747        0.3985496959       -0.9906338769
 N          3.2584466296        0.8492091615       -0.7002484292
 S          4.1069808817        0.0475290392        0.5221428872
 O          3.8758966177       -1.3757984672        0.4270136232
 O          3.7899383128        0.6618436956        1.7869958597
 C          5.7862756491        0.4366403033        0.0674357657
 C          6.3030682680        1.6676260491        0.4255921535
 C          7.5978150048        1.9854675516        0.0473897468
 C          8.3493604628        1.0732822287       -0.6787516117
 C          7.8176829400       -0.1587038910       -1.0289480191
 C          6.5228743026       -0.4828183746       -0.6552155167
 H          6.0707864045       -1.4312119308       -0.8972692271
 H          8.4056752066       -0.8669788560       -1.5900205049
 H          9.3572454148        1.3229901751       -0.9704509250
 H          8.0157230758        2.9409122396        0.3205999074
 H          5.6850250220        2.3395002650        0.9982349458
 H          3.8233702744        0.9888707696       -1.5268420289
 H          2.1053803890        0.7400119596       -3.1035626105
 H         -0.1898487073       -0.0439659462       -3.5505280860
 H         -1.5995280390       -0.8769207495       -1.7075513558
 C         -0.9628581807       -1.0364156089        0.9413818092
 H         -0.5202257972       -0.6435851535        1.8717453663
 C         -0.9154157271       -2.5563911759        1.0355040995
 C         -0.4927412784       -3.4459675398       -0.0903683212
 C          0.4065379728       -3.2645772867        1.0932174976
 H          0.5212990515       -4.0832900062        1.7879433055
 H          1.3030315569       -2.6745407074        0.9613559174
 H         -0.2058010850       -2.9867329234       -1.0229754519
 H         -1.0167344122       -4.3817716029       -0.2101667268
 H         -1.6982115972       -2.9414603872        1.6818773461
 O         -3.3089350161       -2.1242108046       -0.5216242290
