  62
        -98.93597276
 C         -1.8272686496       -0.4535100708       -0.8913649189
 C         -2.2527682198       -0.0618623691        0.4005333406
 C         -3.7037534299       -0.1168014286        0.6433564903
 C         -4.5199087298       -0.5332721797       -0.3420237093
 C         -6.0202652598       -0.5736735794       -0.2735812196
 C         -6.5947387995        0.8463007904       -0.4510899315
 C         -7.3154111797        1.3927876321        0.7814594877
 H         -7.4828939895        2.4592078319        0.6161819763
 H         -8.2938772298        0.9144466823        0.8616185581
 C         -6.5900804200        1.2028533937        2.1171694481
 H         -6.7388744802        0.1825495641        2.4738427693
 H         -7.0791385601        1.8591123646        2.8402665372
 C         -5.0863988200        1.5074177734        2.1136036580
 H         -4.8362121797        2.1996180324        1.3095011572
 H         -4.8395935501        2.0076603646        3.0522260674
 C         -4.1806073201        0.2653927332        2.0174060898
 H         -3.2650751802        0.4550177038        2.5855737497
 H         -4.6825984203       -0.5888540062        2.4802637107
 H         -5.7753057794        1.5152704900       -0.7219297421
 H         -7.2949375094        0.8534680595       -1.2877973816
 H         -6.3336762400       -0.9977619682        0.6778254509
 H         -6.3643780597       -1.2257287804       -1.0767187988
 O         -4.0699641296       -0.9047319513       -1.5696239588
 C         -2.7192276795       -0.8768679319       -1.8750750585
 O         -2.4437100093       -1.2515860734       -3.0334071780
 O         -1.4625283200        0.3099140319        1.3064694203
 C         -0.3511652096       -0.4295160614       -1.2389352686
 C          0.4439927501       -1.3040283004       -0.2991502373
 C         -0.0922970301       -2.5128561698        0.1362216541
 C          0.6176182696       -3.3365153588        0.9875857252
 C          1.8905767795       -2.9868252385        1.4020327750
 C          2.4451800098       -1.7941979991        0.9568371637
 C          1.7202407101       -0.9576911101        0.1186352925
 H          2.1692967103       -0.0358736005       -0.2122384686
 N          3.7346367398       -1.4092499188        1.3544971635
 S          4.7845312601       -0.7593579504        0.2243468829
 O          4.5367641803       -1.2848997820       -1.0977966565
 O          6.1042150200       -1.0052246799        0.7674288934
 C          4.4763635203        0.9935660497        0.2589443106
 C          4.2012702202        1.6062967113        1.4654388498
 C          4.0139709104        2.9790898113        1.4902950980
 C          4.1139037007        3.7137544298        0.3183631371
 C          4.3968728609        3.0843115783       -0.8838587920
 C          4.5799482207        1.7104392182       -0.9165112403
 H          4.7888642508        1.1793850371       -1.8314681596
 H          4.4742529312        3.6561439472       -1.7950908827
 H          3.9691945609        4.7824218899        0.3415879158
 H          3.7904316503        3.4717441925        2.4228923474
 H          4.1289794099        1.0061777524        2.3569632405
 H          4.2049016996       -2.0669620881        1.9593976644
 H          2.4495344093       -3.6320108877        2.0629066860
 H          0.1804170194       -4.2643968383        1.3249332963
 H         -1.0815714001       -2.7966503400       -0.1967668358
 H         -0.2681407194       -0.8617822327       -2.2478698680
 C          0.1423157007        1.0030165484       -1.2820352503
 C          1.2237597409        1.4097574171       -2.2357912306
 C         -0.1903140190        1.8422578770       -2.4777803914
 H         -0.4458314689        2.8799958072       -2.3259284627
 H         -0.7440170689        1.3675896061       -3.2752028609
 H          1.9373401510        2.1534575174       -1.9142384114
 H          1.6410346309        0.6465410162       -2.8759270795
 H          0.1115677905        1.4798995796       -0.3090127009
