  62
        -98.93575626
 C          2.2891322523        1.3016147516        0.2529299797
 C          2.5403379048        0.3670233624       -0.7772868298
 C          3.4622893048       -0.7397859151       -0.4526611827
 C          4.0058541310       -0.7994237316        0.7762942227
 C          4.9618215945       -1.8213717597        1.3382433181
 C          6.1271152148       -2.2444582678        0.4304254653
 C          6.0019791324       -3.6768345964       -0.0914114540
 H          6.9989652375       -4.0451055490       -0.3431998484
 H          5.6159141680       -4.3070097603        0.7125830717
 C          5.1225014394       -3.8417050776       -1.3296613073
 H          5.6373140224       -3.4219121826       -2.1965181927
 H          5.0035316959       -4.9126761428       -1.5098576169
 C          3.7350330978       -3.2030704529       -1.2377055233
 H          3.3038163634       -3.3656895689       -0.2505098919
 H          3.0865371400       -3.7101377239       -1.9552610257
 C          3.7228203387       -1.7050158922       -1.5768388208
 H          2.9295549769       -1.4992208928       -2.3024522338
 H          4.6592029362       -1.4268614062       -2.0691174854
 H          7.0455706537       -2.1783964794        1.0158955092
 H          6.2227779049       -1.5457055128       -0.3991404860
 H          5.3496728878       -1.3716307584        2.2551572612
 H          4.3900646934       -2.7017748904        1.6423665394
 O          3.7135603110        0.1148855131        1.7474331506
 C          2.8535789540        1.1731626506        1.5196889735
 O          2.6705877906        1.9134301842        2.5086819654
 O          2.0171194445        0.4452063843       -1.9190259247
 C          1.3543489093        2.4704242096        0.0040703860
 C         -0.0187013240        1.9744979312       -0.3832620879
 C         -0.7725722475        2.5389343900       -1.4036354220
 C         -2.0354629164        2.0517107259       -1.6941203904
 C         -2.5736522877        0.9985380154       -0.9784810038
 C         -1.8338870877        0.4344573875        0.0528569111
 C         -0.5726746284        0.9291592326        0.3456589531
 H          0.0005862784        0.4909214221        1.1547323635
 N         -2.3688562612       -0.6434416758        0.7823871478
 S         -3.8891882187       -0.4436780091        1.4698158370
 O         -4.1492151211        0.9426935657        1.7826576922
 O         -3.9272570982       -1.3711360931        2.5797156731
 C         -5.0086526919       -1.0052815597        0.2046091892
 C         -6.0184016593       -0.1743735433       -0.2397514549
 C         -6.8834753219       -0.6366184567       -1.2194921317
 C         -6.7244839145       -1.9143288384       -1.7337098754
 C         -5.7065025660       -2.7371473325       -1.2746942691
 C         -4.8390898091       -2.2818337503       -0.2947037206
 H         -4.0374784055       -2.8895232728        0.0909105949
 H         -5.5856088584       -3.7299790142       -1.6772002780
 H         -7.3976927142       -2.2714609118       -2.4969494674
 H         -7.6755394262        0.0011544373       -1.5775530837
 H         -6.0990535316        0.8133276665        0.1853142472
 H         -1.7270027021       -1.0271451213        1.4610501670
 H         -3.5531666980        0.6116831181       -1.2072666119
 H         -2.6072021621        2.4966549211       -2.4940562988
 H         -0.3701222204        3.3591859216       -1.9747728507
 H          1.2617285688        2.9947726318        0.9673457901
 C          1.9629770221        3.4179547431       -1.0091760108
 C          1.6651016492        4.8851241031       -0.9486368881
 C          3.0187723705        4.3783833849       -0.5537466244
 H          3.8559880663        4.5734859244       -1.2068722354
 H          3.2775321415        4.3681987600        0.4954764267
 H          1.5759016955        5.4322296702       -1.8750201614
 H          1.0064494431        5.2304488221       -0.1659370530
 H          2.0903384816        2.9580514109       -1.9822443571
