  62
        -98.94039823
 C          2.4382071374        1.0905291926        0.0076226823
 C          2.3949283445       -0.3076866711        0.2229286550
 C          3.6758044067       -0.9395657762        0.5731401132
 C          4.7785633800       -0.1768773713        0.6882357592
 C          6.1547013505       -0.6969415479        0.9851004618
 C          6.9175964263       -1.0174973179       -0.3078545849
 C          6.1239032126       -1.8702156215       -1.2976479443
 H          5.2691449676       -1.2942883957       -1.6598663580
 H          6.7711239410       -2.0590564002       -2.1568116008
 C          5.6273990776       -3.2064846979       -0.7281667338
 H          6.1880411640       -3.4568693587        0.1730662850
 H          5.8213969198       -3.9933411180       -1.4600834300
 C          4.1294658211       -3.2465472154       -0.4192710351
 H          3.5648679261       -2.9074734950       -1.2917868708
 H          3.8473968067       -4.2863506039       -0.2329915598
 C          3.6755921870       -2.4259527092        0.7948007854
 H          2.6365630524       -2.6950857869        1.0083134274
 H          4.2834353218       -2.6869795297        1.6636035770
 H          7.8437076843       -1.5309321604       -0.0435521332
 H          7.1775543061       -0.0768692850       -0.7985966531
 H          6.6999925915        0.0700205527        1.5374639413
 H          6.0743611529       -1.5890133395        1.6030433790
 O          4.7735728388        1.1675053908        0.4993031476
 C          3.6108687741        1.8325536906        0.1474008375
 O          3.7457779913        3.0638516095       -0.0012099545
 H         -1.4480669639        1.0220009015       -0.7395370529
 C         -1.1865327389        1.1892931637        0.2908570328
 C          0.0921748755        1.5948976390        0.6380534324
 C          0.3850682336        1.8056750593        1.9833411422
 C         -0.5717276085        1.5908277061        2.9553787258
 C         -1.8389108796        1.1570729456        2.6068515027
 C         -2.1469610446        0.9578651235        1.2668211038
 N         -3.4471438198        0.5667707256        0.8904454434
 S         -3.6685280561       -0.6258928426       -0.2852735720
 O         -3.0807982725       -1.8755544093        0.1457599764
 O         -3.2463434069       -0.1203608146       -1.5656724013
 C         -5.4482747117       -0.7457083198       -0.2514473508
 C         -6.0541803627       -1.8067730970        0.3935250699
 C         -7.4386648218       -1.8701712044        0.4254994822
 C         -8.1892281283       -0.8751559228       -0.1821036176
 C         -7.5666416624        0.1840922046       -0.8260683757
 C         -6.1832422347        0.2522254772       -0.8630741076
 H         -5.6559645752        1.0502318661       -1.3589470896
 H         -8.1536322186        0.9546361676       -1.2992743164
 H         -9.2662354542       -0.9267670262       -0.1559645792
 H         -7.9253514734       -2.6937199692        0.9227288151
 H         -5.4298867537       -2.5610803514        0.8451334300
 H         -4.0140979483        0.3372912591        1.6971502150
 H         -2.5833831404        0.9762820275        3.3677985161
 H         -0.3278384972        1.7522887843        3.9948527978
 H          1.3805348946        2.1315155954        2.2551441892
 C          1.1747755310        1.8341494633       -0.3860208909
 H          1.4327009471        2.9035691217       -0.3686805773
 C          0.7678098463        1.4559119211       -1.7948168131
 C          0.0141048624        2.4288235628       -2.6490452001
 C          1.4484407037        2.1191467495       -2.9527922090
 H          1.6765466040        1.5257194255       -3.8255556386
 H          2.1939685769        2.8673788174       -2.7249279719
 H         -0.7490756367        2.0456841195       -3.3097770263
 H         -0.2154174859        3.3931608021       -2.2214853790
 H          0.5287685032        0.4019988508       -1.8921423515
 O          1.3430260027       -0.9947801356        0.1297250296
