  62
        -98.94141294
 C          1.2402614102        1.1147185744       -0.0731772347
 C          1.6595497304        0.0485351003        0.7553146003
 C          2.7219736632       -0.8184875686        0.2222344806
 C          3.1912585898       -0.5967819191       -1.0173371366
 C          4.2300132534       -1.3807058395       -1.7801747781
 C          5.4856431626       -1.8256357870       -1.0171883035
 C          5.9483549296       -0.8666087897        0.0895180261
 H          5.4141529667        0.0816048217        0.0094142383
 H          7.0105842170       -0.6553867534       -0.0464069284
 C          5.7601612379       -1.4421624100        1.4952589841
 H          6.4201731231       -0.9094770010        2.1840171406
 H          6.0706163923       -2.4892519191        1.4888548946
 C          4.3434387106       -1.3445470618        2.0598291158
 H          4.1069191785       -0.3015234242        2.2866817853
 H          4.3191947856       -1.8924592557        3.0048060284
 C          3.2293835301       -1.8857149340        1.1486475378
 H          2.3810440631       -2.1656011299        1.7796987864
 H          3.5559459310       -2.7685765035        0.6040064442
 H          6.2797495825       -1.9383493642       -1.7572663226
 H          5.3181538137       -2.8115932520       -0.5856539239
 H          3.7400383045       -2.2596964761       -2.2101250558
 H          4.5173515100       -0.7342509153       -2.6130979680
 O          2.7238279729        0.4145911732       -1.8030894273
 C          1.7419811237        1.2880682299       -1.3614514263
 O          1.4137004031        2.1547134972       -2.1941952191
 H         -0.8267118377       -0.2028008444       -0.6145282881
 C         -1.4588116118        0.6398545982       -0.8478714400
 C         -1.0897868532        1.9105867642       -0.4293527112
 C         -1.9036367694        2.9821719778       -0.7754586902
 C         -3.0456630175        2.7767551549       -1.5304795687
 C         -3.4176966344        1.5057729253       -1.9298144711
 C         -2.6131723021        0.4265561317       -1.5828439969
 N         -2.9482538260       -0.8851679720       -1.9518176716
 S         -2.6270894180       -2.1334130898       -0.8846154529
 O         -1.2239942108       -2.4647646803       -0.9022789575
 O         -3.5265335925       -3.1910256920       -1.2961108046
 C         -3.1260778764       -1.5050631907        0.7092890082
 C         -2.1938960459       -1.1850312445        1.6743664338
 C         -2.6325916545       -0.6450154897        2.8738248025
 C         -3.9853733381       -0.4358940799        3.0880567328
 C         -4.9112875605       -0.7721080214        2.1115856772
 C         -4.4794945932       -1.3086999639        0.9105219307
 H         -5.1683596638       -1.5927401371        0.1316171123
 H         -5.9639854375       -0.6141291805        2.2817564342
 H         -4.3187718835       -0.0109469412        4.0216603929
 H         -1.9040169143       -0.3863015738        3.6257831208
 H         -1.1434131660       -1.3466590430        1.4883833060
 H         -3.8489674686       -0.9882515091       -2.3953436287
 H         -4.3129078533        1.3481209327       -2.5112987462
 H         -3.6622981256        3.6194041322       -1.8036352503
 H         -1.6393456939        3.9787081802       -0.4620144772
 C          0.1506325458        2.0469510369        0.4199901597
 H         -0.1011099001        1.6898016226        1.4308902434
 C          0.6623275498        3.4688677467        0.5198152799
 C          0.1287249831        4.3944460746        1.5710982811
 C          1.5182532020        3.8472233442        1.6904355509
 H          2.3540112979        4.5105382460        1.5255671901
 H          1.7070277064        3.0849451073        2.4324301260
 H         -0.6246547541        4.0092795772        2.2413284414
 H          0.0117059503        5.4393128843        1.3260699691
 H          0.9248302712        3.8837626667       -0.4467411578
 O          1.1585593678       -0.1769663053        1.8903983239
