  62
        -98.94182574
 C         -2.3782102914       -1.0753693992        0.1367960891
 C         -3.6329680114       -0.9279622770        0.7861088845
 C         -4.6034986500       -0.0417163575        0.1362199934
 C         -4.2693598904        0.5883895138       -1.0039795326
 C         -5.1541879722        1.5087174918       -1.8002508250
 C         -5.1668985783        2.9570062466       -1.2923185851
 C         -5.9220686957        3.1804661827        0.0185797470
 H         -6.0378395450        4.2592111750        0.1407766289
 H         -6.9219424114        2.7529233425       -0.0622625224
 C         -5.2168654112        2.6163094459        1.2599696548
 H         -4.1671469884        2.4231218703        1.0259211899
 H         -5.2336389973        3.3616766122        2.0583219837
 C         -5.8435221885        1.3391109349        1.8195441967
 H         -6.8517287625        1.5535910188        2.1806483818
 H         -5.2438095834        1.0078445933        2.6710100494
 C         -5.9207227424        0.1810821725        0.8161512079
 H         -6.7006349054        0.3727079142        0.0794887802
 H         -6.1713020430       -0.7306307540        1.3639144528
 H         -5.6361645147        3.5689182381       -2.0662511569
 H         -4.1343599313        3.2968852562       -1.1814811262
 H         -4.7665469071        1.5058724225       -2.8213822027
 H         -6.1719459818        1.1174354615       -1.8135881879
 O         -3.0529678817        0.4369097523       -1.5886257158
 C         -2.0710675324       -0.3780377622       -1.0332915920
 O         -1.0105112672       -0.3861200375       -1.6865988666
 O         -3.9286721720       -1.5147818637        1.8602676505
 C         -1.3561798066       -1.9745346233        0.8123090256
 C         -0.0513973989       -1.2384157814        0.9707227851
 C          0.0908306381       -0.3127928476        2.0002553458
 C          1.2590481603        0.4123140196        2.1398346769
 C          2.3046437798        0.2383090172        1.2496865074
 C          2.1631813621       -0.6661355903        0.2064236293
 C          0.9989633771       -1.4137218984        0.0848122446
 H          0.8943797847       -2.1061454278       -0.7358689480
 N          3.2112700926       -0.8446867368       -0.7108001129
 S          4.0388508527        0.4970716258       -1.2828471812
 O          3.2203364293        1.6869971007       -1.2922103837
 O          4.5892430974        0.0824649260       -2.5553413032
 C          5.3742923283        0.6841122175       -0.1169126677
 C          6.1749574184       -0.4121149270        0.1382178425
 C          7.2228139273       -0.2818925157        1.0354116609
 C          7.4538860331        0.9362429795        1.6570433444
 C          6.6441232289        2.0287140013        1.3874661562
 C          5.5935590447        1.9044226083        0.4914364846
 H          4.9353022178        2.7254607441        0.2545003203
 H          6.8250728112        2.9753595395        1.8709100389
 H          8.2697557942        1.0350382301        2.3555281886
 H          7.8546904846       -1.1292952543        1.2474093170
 H          5.9639642655       -1.3392811997       -0.3677193787
 H          2.9769827791       -1.4686057194       -1.4695659466
 H          3.2121621002        0.8118919329        1.3429736985
 H          1.3573965499        1.1240019383        2.9455288381
 H         -0.7324870493       -0.1613740288        2.6848550557
 H         -1.7742068751       -2.1475689857        1.8171800186
 C         -1.1910075041       -3.3461830894        0.1750447940
 C         -2.3820832465       -4.0844068553       -0.3566438922
 C         -1.3224742511       -3.5962381994       -1.2962115082
 H         -0.6652903828       -4.3254773256       -1.7480763259
 H         -1.5454966589       -2.7579437744       -1.9373442043
 H         -2.4594381709       -5.1449071298       -0.1707248808
 H         -3.3303658039       -3.5669154846       -0.3464555221
 H         -0.4494362449       -3.9412247980        0.6998805233
