  62
        -98.93790093
 C         -2.0910363348       -0.9641889751       -0.0120986651
 C         -2.5327264938        0.3503341200       -0.2817614641
 C         -3.8675628147        0.7212633547        0.2325317898
 C         -4.5723177980       -0.1908737520        0.9276622288
 C         -5.9531255631       -0.0547646553        1.5122915839
 C         -7.0593094229       -0.1501411098        0.4490212505
 C         -6.7893072256        0.6351995249       -0.8317115786
 H         -5.8508261994        0.2924484120       -1.2712016627
 H         -7.5858911338        0.3968198016       -1.5414945270
 C         -6.7487621064        2.1527274320       -0.6685239174
 H         -6.6349941536        2.5834528360       -1.6667017313
 H         -7.7048677504        2.4956838770       -0.2667282928
 C         -5.6262305711        2.7011857190        0.2149079238
 H         -5.8554279124        2.5677406025        1.2687297086
 H         -5.5755941288        3.7805582345        0.0436371064
 C         -4.2398090580        2.1466052533       -0.0977574186
 H         -4.0374540774        2.2708109296       -1.1678096248
 H         -3.4922037336        2.7695981599        0.4086851919
 H         -7.1743813985       -1.2018118816        0.1756115317
 H         -7.9965791353        0.1867402899        0.8950115419
 H         -6.0773094846       -0.8797217725        2.2173369911
 H         -6.0314955645        0.8726259488        2.0718419576
 O         -4.0999705470       -1.4479235089        1.1679404415
 C         -2.8642756396       -1.8659608594        0.7177928642
 O         -2.5670168466       -3.0376669351        1.0273349010
 H          1.2036790575        0.1121308360       -1.7409027931
 C          1.2473257335        0.1630560767       -0.6646036420
 C          0.3423015344       -0.5531447605        0.1012855511
 C          0.4294975476       -0.4660043904        1.4886773960
 C          1.3811473632        0.3346732071        2.0896380991
 C          2.2700583701        1.0662086608        1.3209102523
 C          2.1989680004        0.9778068738       -0.0621845529
 N          3.1025148229        1.7091022891       -0.8486738293
 S          4.7125468674        1.7397620935       -0.4030711324
 O          4.9079317603        2.6823548853        0.6701170165
 O          5.4360522525        2.0139896674       -1.6245423457
 C          5.0603707974        0.0866559269        0.1718779637
 C          5.4157052144       -0.1273110126        1.4877469740
 C          5.6440587808       -1.4247142444        1.9181672483
 C          5.5099762801       -2.4804162176        1.0302620330
 C          5.1557289880       -2.2488931581       -0.2902991575
 C          4.9268878474       -0.9542032801       -0.7259611758
 H          4.6571225907       -0.7398577541       -1.7474631842
 H          5.0542168216       -3.0719275460       -0.9793680343
 H          5.6833983228       -3.4900524142        1.3678980282
 H          5.9216814996       -1.6075290277        2.9437556907
 H          5.5084938038        0.7214665475        2.1455034916
 H          2.9878714267        1.5812414323       -1.8428010345
 H          3.0048353926        1.7130397696        1.7718064980
 H          1.4301932576        0.3960345059        3.1662704908
 H         -0.2698087706       -1.0322846614        2.0891431182
 C         -0.7296757761       -1.4301597064       -0.4981768531
 H         -0.5998775489       -2.4458637577       -0.0982490406
 C         -0.7003724006       -1.4947030067       -2.0104637165
 C          0.2748216849       -2.3984592731       -2.7020220411
 C         -1.1850104132       -2.7372258957       -2.6922576199
 H         -1.7457714261       -2.6364965191       -3.6095021160
 H         -1.5205005269       -3.5494353405       -2.0638808596
 H          0.7160580093       -2.0699440120       -3.6311193592
 H          0.9340150008       -2.9869605690       -2.0822784493
 H         -0.9415105164       -0.5455209664       -2.4752130183
 O         -1.8530134329        1.1883471329       -0.9314217978
