  62
        -98.94522244
 C          0.9563393725        1.5344207864       -0.6563307933
 C          2.1812640059        1.7927943296        0.0143832120
 C          3.2261115201        0.7735867761       -0.1182493461
 C          2.9934558487       -0.3226184836       -0.8623849376
 C          3.9661315861       -1.4418677714       -1.1186100693
 C          4.0171463692       -2.4976458479       -0.0060711892
 C          4.6970097957       -2.0516776622        1.2886771725
 H          4.8593376376       -2.9477745268        1.8909525553
 H          5.6774716189       -1.6324754721        1.0607824939
 C          3.8819251131       -1.0444129553        2.1118992694
 H          2.8435878866       -1.0498122951        1.7720195330
 H          3.8782356997       -1.3477340143        3.1612208053
 C          4.4093629771        0.3891727131        2.0571186717
 H          5.3986426945        0.4351104834        2.5182084251
 H          3.7370012524        1.0254962630        2.6383187572
 C          4.5038766813        0.9701675053        0.6404565462
 H          4.6797039308        2.0456902416        0.7217124174
 H          5.3383061587        0.5194567744        0.1033671071
 H          2.9972720519       -2.8156898646        0.2148832946
 H          4.5627170058       -3.3583567446       -0.3995774701
 H          3.6418277925       -1.9278421565       -2.0410543439
 H          4.9630530368       -1.0287273859       -1.2765038799
 O          1.8182780471       -0.5242913496       -1.5113434407
 C          0.7697905445        0.3821316918       -1.4211526569
 O         -0.2356252004        0.0344586736       -2.0710676605
 O          2.3936653525        2.8384891507        0.6852473747
 C         -0.1344867190        2.5775886252       -0.4871664149
 C         -1.0889903293        2.1934945773        0.6189005133
 C         -1.3153448907        3.0470974409        1.6920581890
 C         -2.1967461398        2.6921948197        2.6979109428
 C         -2.8659306904        1.4833009682        2.6511876061
 C         -2.6397386084        0.6175273245        1.5853321671
 C         -1.7566021338        0.9770639052        0.5781112206
 H         -1.5966271166        0.3085694332       -0.2522835011
 N         -3.2622395737       -0.6339450506        1.5464157288
 S         -3.4983484285       -1.4866586534        0.1324970816
 O         -3.9360053240       -0.6328786830       -0.9467833916
 O         -4.4325586085       -2.5276525691        0.5150103848
 C         -1.9344154371       -2.2531147060       -0.2289473071
 C         -1.1010753479       -2.6144623346        0.8105014560
 C          0.0755828753       -3.2855739930        0.5207083164
 C          0.3932592433       -3.5893196600       -0.7943367483
 C         -0.4531253686       -3.2171567814       -1.8253574321
 C         -1.6295353306       -2.5424904701       -1.5426943598
 H         -2.3047742771       -2.2190817392       -2.3184341031
 H         -0.1978272471       -3.4387492074       -2.8491342907
 H          1.3074612366       -4.1161223862       -1.0203947868
 H          0.7391229404       -3.5700205781        1.3228755833
 H         -1.3745472494       -2.3614863323        1.8218294471
 H         -3.9826843079       -0.7977874534        2.2328556213
 H         -3.5539427919        1.2040415955        3.4343541495
 H         -2.3657868927        3.3636006591        3.5259908613
 H         -0.7868468471        3.9876994396        1.7397489918
 H          0.3890767820        3.4918237101       -0.1744711891
 C         -0.9059693199        2.8805984791       -1.7564548552
 C         -1.5370708656        4.2296648259       -1.9193307784
 C         -0.3421497633        3.8560159444       -2.7434709334
 H         -0.4775202307        3.6588292746       -3.7962085255
 H          0.6057180626        4.3159472374       -2.5038576105
 H         -2.4991390551        4.2904124003       -2.4047202089
 H         -1.3988802683        4.9482632920       -1.1256321135
 H         -1.4409205567        2.0255516137       -2.1499885647
