  62
        -98.94547953
 C         -2.6547545196       -1.0364394506        0.2625490099
 C         -2.5013412896       -0.2774724805       -0.9234444500
 C         -3.0812550897        1.0732168495       -0.8973753998
 C         -3.7204656397        1.4966712193        0.2081620403
 C         -4.3050658098        2.8668614993        0.3904931604
 C         -3.2862856898        3.8233151592        1.0262742006
 C         -1.9144180098        3.8051727194        0.3506818706
 H         -1.4469637398        2.8285620194        0.5027286305
 H         -1.2865760699        4.5374552493        0.8637008007
 C         -1.9414358998        4.1189824496       -1.1516666993
 H         -1.1339323198        4.8192680296       -1.3752792592
 H         -2.8806264698        4.6096726696       -1.4108882793
 C         -1.7365884997        2.9029032897       -2.0573864595
 H         -0.8417000797        2.3575588397       -1.7418207096
 H         -1.5534276697        3.2642770999       -3.0730217395
 C         -2.9122356497        1.9191694097       -2.1272447997
 H         -2.7112382896        1.2213674498       -2.9452848198
 H         -3.8321751797        2.4619743497       -2.3540632896
 H         -3.1545626398        3.5438349391        2.0742347505
 H         -3.6939630399        4.8351427892        0.9932611907
 H         -5.1726864798        2.7863747391        1.0474499604
 H         -4.6258937598        3.2506517094       -0.5756986995
 O         -3.8617076197        0.7319513192        1.3216670901
 C         -3.3095698097       -0.5379248508        1.3871927600
 O         -3.4638890197       -1.1106915010        2.4858087699
 O         -1.9109325996       -0.7031850103       -1.9494839000
 C         -2.0327382995       -2.4190030006        0.3571673298
 C         -0.5436918695       -2.3017190905        0.1356620998
 C          0.1722267905       -3.0961644004       -0.7489879803
 C          1.5306159705       -2.8955366903       -0.9280453402
 C          2.2026541204       -1.9088471304       -0.2305912701
 C          1.4979828004       -1.1167588005        0.6667323600
 C          0.1410891404       -1.3244714006        0.8483794200
 H         -0.4079731596       -0.7000131707        1.5446262500
 N          2.1752131303       -0.1061686206        1.3826704202
 S          2.8462611303        1.1257647996        0.4482846404
 O          2.9262104302        2.2701479195        1.3308319305
 O          2.1163197403        1.3135830497       -0.7840034496
 C          4.4903716003        0.5335689197        0.1104402103
 C          4.8898494704        0.3091435099       -1.1922275897
 C          6.1723898804       -0.1624440400       -1.4268138997
 C          7.0267830404       -0.3992672601       -0.3607408197
 C          6.6107203003       -0.1653913703        0.9417171603
 C          5.3305503903        0.3066658396        1.1831444003
 H          4.9674151403        0.5059962494        2.1775144603
 H          7.2781873303       -0.3502052104        1.7678807703
 H          8.0230673104       -0.7683845501       -0.5461777298
 H          6.4976465904       -0.3446075799       -2.4384680298
 H          4.1876780404        0.5015631000       -1.9878101597
 H          1.6072923003        0.3044033193        2.1111030302
 H          3.2581222204       -1.7447016403       -0.3741624600
 H          2.0726901806       -3.5147100202       -1.6263278203
 H         -0.3358377394       -3.8628243503       -1.3103310704
 H         -2.2010308196       -2.7598599108        1.3893257597
 C         -2.7184131395       -3.3778585005       -0.5924020804
 C         -2.7611966394       -4.8431190506       -0.2819955706
 C         -4.0054603395       -4.0161021006       -0.1674593305
 H         -4.7840435394       -4.1462397406       -0.9039427005
 H         -4.3747111895       -3.7759235008        0.8192416395
 H         -2.6889332094       -5.5456064405       -1.0983930707
 H         -2.2889408494       -5.1748857007        0.6302342194
 H         -2.6291520495       -3.0722792804       -1.6283446503
