  62
        -98.93080703
 C         -2.5107804878       -1.2056445168       -0.3763968896
 C         -3.1285395416       -0.4199835280        0.6304095253
 C         -3.5120765351        0.9466326278        0.2578838631
 C         -3.2779194197        1.3811619429       -0.9929497580
 C         -3.6397458770        2.7271977451       -1.5619446394
 C         -2.9002457925        3.9353554271       -0.9550490725
 C         -3.6553424572        4.6284325660        0.1859237532
 H         -3.5304230916        5.7082481190        0.0834634750
 H         -4.7210496078        4.4237668635        0.0766194382
 C         -3.2078933469        4.2612684868        1.6039596487
 H         -2.2785133039        4.7879666643        1.8327323687
 H         -3.9702497380        4.6209601802        2.2984424335
 C         -2.9629340029        2.7746868572        1.8664067789
 H         -2.0096576298        2.4741813060        1.4219078309
 H         -2.8533704974        2.6323242156        2.9436257890
 C         -4.0632011186        1.8353244179        1.3342228138
 H         -4.9125265506        2.4076094577        0.9641675097
 H         -4.4095003572        1.1782800178        2.1344681160
 H         -1.9078043665        3.6256702214       -0.6257541596
 H         -2.7612799052        4.6586428502       -1.7602660424
 H         -4.7175508631        2.8732740899       -1.4615077645
 H         -3.4073976500        2.6652435626       -2.6270037949
 O         -2.6907944277        0.5957986787       -1.9341864034
 C         -2.2550870610       -0.6928761225       -1.6481601754
 O         -1.6789172931       -1.2435040507       -2.6057075108
 O         -3.3583081029       -0.8524691541        1.7918625449
 C         -2.0690060192       -2.6002643064        0.0342688207
 C         -0.6795514437       -2.5334104337        0.6165032444
 C         -0.3797112295       -3.0926412695        1.8523216469
 C          0.8873302405       -2.9649491536        2.3964672621
 C          1.8775020529       -2.2721851316        1.7230344901
 C          1.5869722018       -1.7139734370        0.4862915745
 C          0.3224851391       -1.8526152845       -0.0618202346
 H          0.1058938812       -1.4092782158       -1.0239981796
 N          2.5878859234       -0.9669951608       -0.1905667265
 S          2.7496616082        0.6081431586        0.4129772748
 O          2.7040845976        0.5545418839        1.8516094787
 O          1.7891427970        1.4821645415       -0.2310748732
 C          4.3990517516        1.0114249628       -0.1262612392
 C          5.4625107720        0.4754801014        0.5740197864
 C          6.7517157445        0.7485373262        0.1467178250
 C          6.9546406618        1.5468875973       -0.9693914576
 C          5.8770237482        2.0772057421       -1.6619665118
 C          4.5845160220        1.8065868430       -1.2397957743
 H          3.7172105817        2.2022704749       -1.7438128572
 H          6.0370474564        2.6987974865       -2.5282727640
 H          7.9589619831        1.7586594694       -1.3007643445
 H          7.5922979544        0.3390228092        0.6832563328
 H          5.2558113323       -0.1323316161        1.4390435432
 H          2.3635485835       -0.8784163022       -1.1745401366
 H          2.8587167336       -2.1402300965        2.1474879540
 H          1.1018108819       -3.3998762025        3.3606846865
 H         -1.1553152348       -3.6085711598        2.3992816291
 H         -2.7531117312       -2.8844980407        0.8495992163
 C         -2.2114196311       -3.6405821891       -1.0663516730
 C         -1.0455267736       -4.2739657789       -1.7586300990
 C         -1.8598347532       -5.0723402720       -0.7883156666
 H         -2.5081847676       -5.8472006126       -1.1677044863
 H         -1.4139346865       -5.2952566574        0.1692579357
 H         -1.1423919354       -4.4751864271       -2.8144191735
 H         -0.0520477069       -3.9735769817       -1.4645770051
 H         -3.0909617063       -3.4636058237       -1.6766107481
