  62
        -98.93158242
 C         -1.7571502108       -0.3829979446       -0.7890994870
 C         -2.9160027883        0.4012441120       -1.0086792775
 C         -4.2031692536       -0.2202999581       -0.6350527138
 C         -4.2222999522       -1.4577968556       -0.1143971478
 C         -5.4112648437       -2.2873804472        0.3023838392
 C         -6.5363938885       -1.5807551716        1.0705805519
 C         -6.0768949914       -0.4439884708        1.9950973722
 H         -6.5048237638       -0.5987030689        2.9873741108
 H         -4.9909463166       -0.4639646894        2.1023038328
 C         -6.5156630488        0.9380438151        1.5049966479
 H         -6.4933653218        1.6330760891        2.3479235314
 H         -7.5503898407        0.8756123217        1.1608552637
 C         -5.6558353029        1.5436938930        0.3963852674
 H         -4.6776112811        1.8220402442        0.7976531435
 H         -6.1376294087        2.4658226494        0.0622718246
 C         -5.4186799022        0.6412700626       -0.8256193455
 H         -6.3006314590        0.0482559111       -1.0547735996
 H         -5.1999738175        1.2864780703       -1.6808962280
 H         -7.2698785607       -1.1904665301        0.3664010742
 H         -7.0441600958       -2.3463348074        1.6597744212
 H         -5.8296674066       -2.7554362935       -0.5935134227
 H         -4.9949814003       -3.0881887299        0.9182675147
 O         -3.0805602557       -2.1770608430        0.0826077182
 C         -1.8380123271       -1.6648264416       -0.2401259074
 O         -0.8891957225       -2.4398110673       -0.0029667426
 O         -2.9072056995        1.5596991887       -1.4953283006
 C         -0.3507722986        0.0905391872       -1.1133759943
 C          0.2602788674        0.8643416162        0.0263570059
 C         -0.4540126717        1.8323526138        0.7242194499
 C          0.1452230522        2.5394068006        1.7507598541
 C          1.4707650942        2.3174578313        2.0807619630
 C          2.1950406074        1.3566092871        1.3860126583
 C          1.5790980159        0.6234110449        0.3817581388
 H          2.1388782763       -0.1418022338       -0.1333710054
 N          3.5431052357        1.1075224138        1.6801867285
 S          4.6195442174        0.8878807357        0.4126207069
 O          5.9053104814        1.2687227226        0.9560000334
 O          4.1884422538        1.5960500964       -0.7690138960
 C          4.6135713233       -0.8674316520        0.1216694359
 C          4.3232655524       -1.3537061796       -1.1374777839
 C          4.3381066737       -2.7236644689       -1.3467941735
 C          4.6434952491       -3.5781193265       -0.2988451462
 C          4.9366799801       -3.0734622581        0.9592223366
 C          4.9231001273       -1.7050923845        1.1748253272
 H          5.1497553680       -1.2748039655        2.1360397635
 H          5.1734289019       -3.7424861444        1.7707878850
 H          4.6521661354       -4.6438484572       -0.4647364792
 H          4.1083346975       -3.1173516852       -2.3240070370
 H          4.0864482678       -0.6550284236       -1.9249871904
 H          3.9336503590        1.6919619305        2.4050428803
 H          1.9418201042        2.8835935485        2.8701078910
 H         -0.4211381312        3.2848186913        2.2888651481
 H         -1.4772702133        2.0342640925        0.4467326314
 H          0.2411467462       -0.8313463123       -1.2330687971
 C         -0.2615292764        0.8499150662       -2.4309304381
 C         -0.0946532600        2.3331764517       -2.5241493480
 C          1.0439608344        1.4314606080       -2.8893902858
 H          1.3106916660        1.3343652845       -3.9313879493
 H          1.8882079586        1.3954380409       -2.2152806007
 H         -0.6288220462        2.8496563726       -3.3069258823
 H         -0.0234484158        2.8958501707       -1.6066726404
 H         -0.8794791281        0.3910173024       -3.1968016631
