  62
        -98.94458127
 C         -1.9200541981       -1.3449916512       -0.6431725868
 C         -1.5250954160       -0.1559866526       -1.3029311243
 C         -2.3653722376        1.0275575242       -1.0581010903
 C         -3.4212905891        0.9349290172       -0.2322049885
 C         -4.3379277846        2.0676407340        0.1275747297
 C         -3.8677192040        2.7970862260        1.3928010005
 C         -2.3911366743        3.1936391097        1.3717237934
 H         -1.7686783297        2.2958153930        1.4064386124
 H         -2.1913178887        3.7494570382        2.2911611462
 C         -1.9755156150        4.0425945791        0.1622757903
 H         -1.3402399314        4.8585881469        0.5135125051
 H         -2.8561562925        4.4907094570       -0.3007383662
 C         -1.1730608981        3.2754343633       -0.8902724451
 H         -0.3761279412        2.7200566443       -0.3892155204
 H         -0.7029268016        4.0010823339       -1.5598838058
 C         -1.9789391352        2.3000441161       -1.7585305292
 H         -1.3464702026        2.0002234339       -2.5993461179
 H         -2.8622968437        2.8046129677       -2.1564533635
 H         -4.0327719073        2.1430939119        2.2523922374
 H         -4.4827157998        3.6901699759        1.5224647876
 H         -5.3335934207        1.6571325021        0.3064028020
 H         -4.3879167150        2.7644165206       -0.7071325084
 O         -3.7636476733       -0.2185345427        0.3981247637
 C         -3.0168672764       -1.3701799821        0.2220069428
 O         -3.4343689787       -2.3525801216        0.8700106212
 O         -0.5343960459       -0.0650830059       -2.0725893485
 C         -1.1624847568       -2.6603355758       -0.7551813220
 C         -0.1328779181       -2.7417079641        0.3433759778
 C         -0.0516768472       -3.8490223098        1.1780016007
 C          0.8649926070       -3.8765408557        2.2147906217
 C          1.6966093145       -2.7970392228        2.4486155745
 C          1.6250762448       -1.6832439670        1.6163408151
 C          0.7325110514       -1.6774411136        0.5563036211
 H          0.6774233850       -0.8163175940       -0.0860679128
 N          2.4592678535       -0.5810050709        1.8324406107
 S          2.0353900314        0.9989476340        1.4533555543
 O          2.6410570649        1.7881886525        2.5075383550
 O          0.6114318283        1.1501443615        1.2873742936
 C          2.9323318087        1.3057189996       -0.0554122131
 C          4.2700911798        1.6317907707        0.0753173409
 C          5.0259366969        1.8557724926       -1.0625046674
 C          4.4348987083        1.7499532972       -2.3129979316
 C          3.0934973940        1.4237019643       -2.4276222943
 C          2.3298299259        1.1969609345       -1.2915885721
 H          1.2859485884        0.9359248982       -1.3766627045
 H          2.6259783213        1.3377045085       -3.3954557757
 H          5.0212199999        1.9235483689       -3.2016497292
 H          6.0694345326        2.1115076538       -0.9724666572
 H          4.6840895991        1.7175354550        1.0663724338
 H          3.0027571724       -0.6205737736        2.6814543228
 H          2.3929551537       -2.8089121838        3.2734637794
 H          0.9196264267       -4.7402850645        2.8601482807
 H         -0.7267341407       -4.6785157675        1.0260793047
 H         -1.9123468890       -3.4443271286       -0.5603774912
 C         -0.5877661968       -2.9192298493       -2.1401605097
 C          0.8733190584       -2.8537976653       -2.4558904553
 C          0.1817308545       -4.1807727627       -2.4006675218
 H          0.0041252398       -4.7142925473       -3.3220682351
 H          0.3904588724       -4.8169615348       -1.5535897065
 H          1.1566755626       -2.4529403182       -3.4167583517
 H          1.5574947857       -2.6003731028       -1.6613031947
 H         -1.2630162068       -2.5906421528       -2.9233431767
