  62
        -98.94301897
 C          2.3376515595        0.8986803331        0.4351922216
 C          2.5299602783       -0.1577545735       -0.4879421863
 C          3.5289727247       -1.1662027667       -0.1077740270
 C          4.1662895718       -1.0762719617        1.0728176972
 C          5.1832922277       -2.0453207996        1.6113486720
 C          6.6109292714       -1.7990197089        1.1044345720
 C          6.8568033388       -2.1771809448       -0.3567045362
 H          6.5195563186       -3.1999179593       -0.5281134730
 H          7.9369752742       -2.1597091924       -0.5147285783
 C          6.1945777109       -1.2372217017       -1.3737638592
 H          6.9119320828       -0.9856085035       -2.1582074981
 H          5.9193625145       -0.3020502389       -0.8806361303
 C          4.9577629727       -1.8163168635       -2.0606959241
 H          5.2450904341       -2.6779216780       -2.6675942546
 H          4.5493698116       -1.0546611907       -2.7299539185
 C          3.8439445474       -2.2474166699       -1.0976418275
 H          4.1270180467       -3.1647551727       -0.5820223561
 H          2.9404888540       -2.4386830236       -1.6819600888
 H          7.2844778680       -2.3905938974        1.7287294428
 H          6.8581905327       -0.7455832002        1.2546238612
 H          4.8814926521       -3.0652162390        1.3713133601
 H          5.1787285029       -1.9273780277        2.6970553483
 O          3.9312227097       -0.0649302986        1.9491788864
 C          3.0407413515        0.9486045928        1.6446809510
 O          2.9591463316        1.8320326556        2.5211752886
 O          1.9115662384       -0.2829884565       -1.5800249578
 C          1.3818108607        2.0585332483        0.1987815418
 C         -0.0489227307        1.6763191798        0.4967982660
 C         -0.7614804365        2.3191604384        1.5022531744
 C         -2.0783316929        1.9800847033        1.7589974767
 C         -2.7093421787        0.9929285742        1.0233613079
 C         -2.0057915861        0.3436226810        0.0174069063
 C         -0.6875887035        0.6911974823       -0.2426185346
 H         -0.1423643272        0.1800820359       -1.0224797596
 N         -2.6251010353       -0.6799511272       -0.7198599316
 S         -4.1426288002       -0.3940056063       -1.3743249046
 O         -4.2562228357       -1.3104468305       -2.4878135044
 O         -4.3381671883        1.0060636108       -1.6725447762
 C         -5.2637776917       -0.9052441081       -0.0885569667
 C         -5.1282452802       -2.1806440235        0.4238211523
 C         -5.9987181437       -2.5982819813        1.4177605022
 C         -6.9863417297       -1.7397623528        1.8776940598
 C         -7.1116658841       -0.4636543184        1.3504952080
 C         -6.2433563709       -0.0393717958        0.3565608561
 H         -6.2990922395        0.9456529897       -0.0788526811
 H         -7.8802797681        0.2018992957        1.7092432686
 H         -7.6621903502       -2.0676454042        2.6516945205
 H         -5.9042065723       -3.5898969950        1.8303074775
 H         -4.3494295472       -2.8169964683        0.0375001257
 H         -2.0133934559       -1.1086032305       -1.3997635595
 H         -3.7344085179        0.7242348221        1.2199957314
 H         -2.6193285103        2.4878723724        2.5428621615
 H         -0.2718744464        3.0819567994        2.0901845305
 H          1.6759925884        2.8321297450        0.9205980061
 C          1.4984932831        2.6418057456       -1.1970705501
 C          1.0489156150        4.0503424680       -1.4355695524
 C          2.5094797455        3.7144318504       -1.4620062369
 H          3.0243770465        3.7142291528       -2.4110538841
 H          3.1222094422        4.0388144887       -0.6332029250
 H          0.5557639641        4.2824588969       -2.3671594469
 H          0.6721344733        4.6051742007       -0.5896337030
 H          1.3253809238        1.9185258225       -1.9830738771
