  62
        -98.94030518
 C         -2.3421908909       -0.8513139991       -0.2136821709
 C         -3.5991177310       -1.1428329793        0.3694798989
 C         -4.7512571908       -0.4260951386       -0.1920300804
 C         -4.5584938507        0.4293841923       -1.2126842896
 C         -5.6318288605        1.2684947531       -1.8421484088
 C         -5.7346839802        2.6388661625       -1.1578921776
 C         -5.8066325702        2.5628597611        0.3672331623
 H         -4.8594789702        2.1747754806        0.7492098419
 H         -5.9078476499        3.5846841608        0.7392655932
 C         -6.9606054503        1.7057264709        0.9060538016
 H         -7.4436732902        2.2439978203        1.7242314521
 H         -7.7095483604        1.5610262317        0.1267113215
 C         -6.5361351606        0.3439597603        1.4591805704
 H         -7.3828510407       -0.0799662100        2.0055393000
 H         -5.7198926805        0.4771766995        2.1737101205
 C         -6.0989655209       -0.6936525289        0.4171876794
 H         -6.8624121209       -0.7812858180       -0.3582519506
 H         -6.0118305210       -1.6585575193        0.9250958986
 H         -6.6192838501        3.1506917430       -1.5410808771
 H         -4.8556267001        3.2276516625       -1.4299142971
 H         -5.3806964606        1.4151294639       -2.8938944487
 H         -6.5828194807        0.7439323632       -1.7749367393
 O         -3.3394476107        0.6684384425       -1.7599463195
 C         -2.1981676108        0.0532422918       -1.2656251201
 O         -1.1472555207        0.3890984321       -1.8435923998
 O         -3.7486432011       -1.9587675102        1.3187223082
 C         -1.1042945310       -1.5316848598        0.3443979185
 C         -0.1769864308       -0.4859084306        0.9122278894
 C         -0.6410345606        0.3147702086        1.9541517001
 C          0.1578137697        1.3011451380        2.4972873109
 C          1.4394785897        1.5070953781        2.0169503811
 C          1.9099296695        0.7185659989        0.9739391003
 C          1.1050780392       -0.2755503804        0.4326895495
 H          1.4961292591       -0.8717045998       -0.3742165611
 N          3.1911218195        0.9353608691        0.4436548905
 S          4.0738358192       -0.3680227805       -0.1588653407
 O          3.6300374191       -0.6704945792       -1.4959355610
 O          4.0497571990       -1.4626285813        0.7859036883
 C          5.6994358593        0.3633367192       -0.2186747701
 C          6.6087178893        0.0952987481        0.7869039196
 C          7.8564541094        0.6975063379        0.7401371201
 C          8.1706079396        1.5548676888       -0.3034644192
 C          7.2476670696        1.8135318898       -1.3062892189
 C          5.9991505495        1.2137494301       -1.2664515994
 H          5.2528644595        1.3773463409       -2.0265895292
 H          7.4961325397        2.4786324905       -2.1175971583
 H          9.1418081497        2.0227109786       -0.3375524788
 H          8.5772964994        0.4960382170        1.5160261399
 H          6.3225306592       -0.5833644025        1.5742099090
 H          3.7610797396        1.5377939985        1.0214018410
 H          2.0656695099        2.2784240776        2.4390000517
 H         -0.2158787102        1.9122672773        3.3051837415
 H         -1.6420597906        0.1494867885        2.3294193100
 H         -1.4644627811       -2.1559810205        1.1756615579
 C         -0.4576984913       -2.4275671991       -0.6890597023
 C          0.4399870285       -3.5435417997       -0.2483889634
 C         -0.9125897716       -3.8491695989       -0.8165830736
 H         -0.9722434217       -4.2842345780       -1.8028738740
 H         -1.6858100216       -4.1859786793       -0.1415991939
 H          1.3163314884       -3.7626301593       -0.8401691336
 H          0.5892288685       -3.6729058306        0.8131552965
 H         -0.2019937512       -1.9021941083       -1.6028061119
