  62
        -98.93596036
 C         -1.8920731102       -1.1961735755        0.0654081270
 C         -2.1521506331        0.0991176234       -0.4409781320
 C         -3.4216865833        0.7281017605       -0.0221382599
 C         -4.2418135017        0.0813692422        0.8253516609
 C         -5.5547126412        0.4955299747        1.4565058765
 C         -6.3485391965        1.6787123310        0.9081920261
 C         -6.9203818862        1.4722988084       -0.4938313934
 H         -7.7055574582        0.7138389063       -0.4411647926
 H         -7.3835936007        2.4082496134       -0.8139274552
 C         -5.9180401791        1.0255960835       -1.5551397010
 H         -5.5305208046        0.0370543827       -1.3001241917
 H         -6.4565254879        0.9253008870       -2.5014657685
 C         -4.7440890792        1.9750545341       -1.7868252790
 H         -4.2083879248        1.6245434999       -2.6730851129
 H         -5.1192669345        2.9781646319       -1.9986625481
 C         -3.7255534465        2.0644193095       -0.6366896737
 H         -4.0474439272        2.7717984274        0.1239995470
 H         -2.7827933405        2.4346921750       -1.0500083505
 H         -7.1909396167        1.8288841004        1.5890167207
 H         -5.7503866500        2.5844988471        0.9451764348
 H         -6.1867249100       -0.3980554886        1.4379240539
 H         -5.3288280862        0.6901264717        2.5109796315
 O         -3.9304588206       -1.1531991029        1.3183934268
 C         -2.7785116053       -1.8193737341        0.9472561060
 O         -2.6568794468       -2.9503707944        1.4587944629
 O         -1.3725886584        0.7317016876       -1.1999361897
 C         -0.6598047820       -2.0096504856       -0.2987971262
 C          0.5209663415       -1.6426075834        0.5618771753
 C          1.2549082395       -2.6198697293        1.2232183842
 C          2.3496155715       -2.2762696285        1.9980821201
 C          2.7365446009       -0.9543033989        2.1253321430
 C          2.0099403199        0.0295546204        1.4667165015
 C          0.9118270213       -0.3167644452        0.6929680885
 H          0.3529906877        0.4517083328        0.1795041637
 N          2.3989363366        1.3803404802        1.5783961469
 S          3.9618932442        1.7538884643        1.1011784724
 O          4.8878459656        1.2431784292        2.0804565754
 O          3.9724902596        3.1842020022        0.8970560053
 C          4.1762109113        0.8990719434       -0.4482650071
 C          4.7408441000       -0.3606412751       -0.4606453007
 C          4.8260754278       -1.0427616829       -1.6639056722
 C          4.3501040051       -0.4570408484       -2.8265265874
 C          3.7914267568        0.8116653994       -2.7981027523
 C          3.6954548975        1.4954942679       -1.5971262667
 H          3.2667492770        2.4829676588       -1.5333917859
 H          3.4215123478        1.2657322142       -3.7031882776
 H          4.4124880472       -0.9923196854       -3.7604467060
 H          5.2595086402       -2.0293944884       -1.6894690062
 H          5.1061378427       -0.7779536294        0.4629640108
 H          1.7481633615        2.0106989594        1.1308763816
 H          3.5883819591       -0.6679692011        2.7208647731
 H          2.9066683112       -3.0457243482        2.5105008905
 H          0.9537286446       -3.6536995324        1.1377769970
 H         -0.9292890778       -3.0506679832       -0.0613098614
 C         -0.3411012247       -1.9584979541       -1.7884388745
 C          0.8300824012       -1.2312332927       -2.3694392121
 C          0.8266682757       -2.7277681485       -2.3324340450
 H          0.7020824622       -3.2726639286       -3.2556092228
 H          1.4775646433       -3.2076838720       -1.6173476099
 H          0.6854309542       -0.7310094084       -3.3145054603
 H          1.4941843108       -0.7070756733       -1.7008670682
 H         -1.2464179805       -1.9619435816       -2.3876602038
