  62
        -98.93414862
 C         -2.5384000434       -1.4420831612        0.2151739687
 C         -2.7803998310       -0.5216938710       -0.8322326853
 C         -3.7398072939        0.5621529077       -0.5435302606
 C         -4.3127030333        0.6416663452        0.6687053256
 C         -5.3475573166        1.6205757576        1.1652815529
 C         -5.1824447988        3.0949254185        0.7757641731
 C         -3.7286646234        3.5798404466        0.6788847983
 H         -3.6181045461        4.4927357809        1.2671611094
 H         -3.0541657932        2.8355333814        1.1069748520
 C         -3.2964346512        3.8920868688       -0.7556937301
 H         -2.4250287301        4.5510096598       -0.7236148428
 H         -4.1011879378        4.4363630058       -1.2547885203
 C         -2.9124363883        2.6790466593       -1.6016750978
 H         -2.7199757076        3.0267865282       -2.6196825747
 H         -1.9761239841        2.2540321612       -1.2274098214
 C         -3.9561504876        1.5504873652       -1.6538045624
 H         -4.9671384912        1.9499158337       -1.6463588244
 H         -3.8066448353        0.9970151610       -2.5847944273
 H         -5.6830994739        3.2815806433       -0.1731676722
 H         -5.7111416740        3.6798912154        1.5302164671
 H         -5.3253832722        1.5261085876        2.2537011987
 H         -6.3294817972        1.2712759447        0.8324048178
 O         -4.0308322288       -0.2516598723        1.6591431399
 C         -3.1489859285       -1.2975909794        1.4637441675
 O         -2.9979924502       -2.0304454983        2.4616369954
 O         -2.2440155099       -0.5854977304       -1.9693520000
 C         -1.6053218162       -2.6368318138        0.0816136855
 C         -0.1788138096       -2.2220383059        0.3341183559
 C          0.5702435179       -2.8030263582        1.3499131267
 C          1.8705015780       -2.3917524822        1.5880376873
 C          2.4493837199       -1.3988567853        0.8180913125
 C          1.7059697840       -0.8065575094       -0.1947173521
 C          0.4035773672       -1.2198924029       -0.4308943456
 H         -0.1739635453       -0.7571243180       -1.2181693102
 N          2.2857615286        0.2021339260       -0.9872737412
 S          2.9531502928        1.5186490502       -0.1846939128
 O          2.3105886852        1.7409613079        1.0909001607
 O          2.9024212805        2.6117803955       -1.1307487483
 C          4.6513939508        1.0406667222        0.0573212927
 C          5.3894566281        0.6835842367       -1.0543288761
 C          6.7131061062        0.3096988202       -0.8866781422
 C          7.2740964962        0.3019735144        0.3818777491
 C          6.5210014190        0.6669149718        1.4872849307
 C          5.1956845383        1.0409861860        1.3265531920
 H          4.5694311159        1.3259928355        2.1570438607
 H          6.9586984839        0.6606428364        2.4726300560
 H          8.3044072290        0.0098070093        0.5098519468
 H          7.3018148851        0.0251379461       -1.7438304945
 H          4.9161269400        0.7059517326       -2.0217183892
 H          1.6790627148        0.5151022499       -1.7324734728
 H          3.4611669899       -1.0745943599        0.9992908840
 H          2.4400707303       -2.8498298329        2.3821575451
 H          0.1200372919       -3.5682371626        1.9653692844
 H         -1.9012659589       -3.3161512520        0.8959704847
 C         -1.7983613503       -3.3879150638       -1.2307824364
 C         -0.7309059236       -3.5472314191       -2.2682615776
 C         -1.1336278358       -4.7185724332       -1.4275625533
 H         -1.6980361715       -5.5186929626       -1.8817571355
 H         -0.4439725508       -5.0418816934       -0.6622313490
 H         -1.0358473836       -3.5193591121       -3.3034128512
 H          0.2339375057       -3.1005426301       -2.0875734899
 H         -2.8133921596       -3.2951297567       -1.6030607819
