  62
        -98.94526333
 C         -1.4838656576       -0.7437133502       -0.5363274858
 C         -2.6395632052       -1.0529733992        0.2280997569
 C         -3.4362972306        0.0821624514        0.7070769121
 C         -3.0223171478        1.3324713478        0.4334363900
 C         -3.7541383974        2.5839492984        0.8220240050
 C         -4.7273140320        3.0252898332       -0.2801828865
 C         -5.6293123961        1.9023153628       -0.7924775581
 H         -6.2927031384        2.3355216366       -1.5440859987
 H         -5.0138523636        1.1549173135       -1.2982118894
 C         -6.4675194229        1.2153749214        0.2946873475
 H         -6.5117074866        1.8468669356        1.1827278068
 H         -7.4895301134        1.0993246648       -0.0720674264
 C         -5.9750885561       -0.1782940413        0.6892132423
 H         -6.7520853440       -0.6554080808        1.2923590258
 H         -5.8382697020       -0.7861715678       -0.2085713068
 C         -4.6748869015       -0.2221575454        1.5021883836
 H         -4.5482030736       -1.2434211994        1.8734956845
 H         -4.7543548873        0.4470811864        2.3616467146
 H         -5.3412592579        3.8401125505        0.1078545208
 H         -4.1454181839        3.4085082455       -1.1215273992
 H         -3.0185506006        3.3734191163        0.9868155449
 H         -4.2945834866        2.4073862391        1.7501809202
 O         -1.9026254130        1.5947715846       -0.2820150097
 C         -1.1034531528        0.5755862212       -0.7825350780
 O         -0.1223510636        0.9944364529       -1.4264163613
 O         -2.9930367163       -2.2347860863        0.4898845758
 C         -0.6596468065       -1.9310969321       -1.0088692040
 C          0.3822803444       -2.2638040849        0.0337680577
 C          0.3461365294       -3.4787724293        0.7067335482
 C          1.2721508666       -3.7607694262        1.6952210433
 C          2.2366723313       -2.8318961198        2.0370162093
 C          2.2832647802       -1.6116539201        1.3681584827
 C          1.3716770808       -1.3446687988        0.3576790948
 H          1.4001415737       -0.3942610324       -0.1480469186
 N          3.2628978354       -0.6697120681        1.7006112075
 S          3.0500977976        0.9855643438        1.5506067017
 O          3.9072879558        1.5377715223        2.5813799600
 O          1.6582730527        1.3604085216        1.6177973045
 C          3.7823873555        1.3476779572       -0.0313410031
 C          5.1601692389        1.2615140895       -0.1115117937
 C          5.7818403508        1.5178708756       -1.3214928065
 C          5.0185624485        1.8549159183       -2.4298269396
 C          3.6391067503        1.9393864180       -2.3319786843
 C          3.0088050457        1.6851063075       -1.1220795677
 H          1.9346798303        1.7369186672       -1.0284344277
 H          3.0395577562        2.1994931278       -3.1899396341
 H          5.5002908438        2.0539123809       -3.3742952541
 H          6.8552673089        1.4541390173       -1.3984972650
 H          5.7144089385        1.0093102817        0.7772325935
 H          3.8228448529       -0.9036703619        2.5067015006
 H          2.9478566302       -3.0416846295        2.8215444560
 H          1.2334308551       -4.7062458848        2.2147230380
 H         -0.4288606130       -4.1920059730        0.4680470642
 H         -1.3653163678       -2.7726408831       -1.0490001839
 C         -0.0348600432       -1.7671036193       -2.3784608933
 C          0.3244680231       -2.9940983546       -3.1600896294
 C         -0.8267406822       -2.1385998927       -3.5947227610
 H         -0.7190841961       -1.5336681304       -4.4822797742
 H         -1.8280953242       -2.5151937666       -3.4435008274
 H          1.2270993693       -2.9801535709       -3.7509731148
 H          0.1028467527       -3.9530886267       -2.7167742937
 H          0.6204879420       -0.9104410917       -2.4573976309
