  62
        -98.94473790
 C          1.8268416895        0.0815297069        0.1489832069
 C          2.8481527065        0.8463076326        0.7616754663
 C          4.1845067922        0.2373776252        0.7784764429
 C          4.3550947961       -0.9874124101        0.2476810776
 C          5.6710560755       -1.7025314201        0.1505669218
 C          6.3731921508       -1.3950410925       -1.1795262555
 C          6.4424467670        0.0956783187       -1.5112327940
 H          6.9847923191        0.1939182622       -2.4541681664
 H          5.4304445167        0.4697782780       -1.6826492438
 C          7.1246942863        0.9540262508       -0.4368088249
 H          7.8135395224        1.6454495139       -0.9267202941
 H          7.7177894744        0.3194307548        0.2226987128
 C          6.1653781719        1.8002936253        0.4021282594
 H          6.7575606230        2.5220501891        0.9709413853
 H          5.5045366559        2.3673615699       -0.2583032260
 C          5.2982976801        1.0285878890        1.4048859106
 H          5.9309425970        0.3849359394        2.0193721145
 H          4.8145579170        1.7608089802        2.0579976456
 H          7.3826238699       -1.8086259466       -1.1408122144
 H          5.8299165391       -1.8993645869       -1.9821160627
 H          5.4842811961       -2.7759384277        0.2127108151
 H          6.3035062749       -1.4046853830        0.9846176968
 O          3.3444422135       -1.7024453179       -0.3096847619
 C          2.0582658030       -1.1862888476       -0.3843356024
 O          1.2338074940       -1.9411159793       -0.9337176847
 O          2.6494480372        1.9804362848        1.2742600385
 C          0.4254534355        0.6613157198        0.0698591825
 C         -0.5549007355       -0.2626777482        0.7461675471
 C         -0.2860098195       -0.6762933012        2.0496623890
 C         -1.1349926597       -1.5439907442        2.7063101763
 C         -2.2801310612       -2.0088913949        2.0827114725
 C         -2.5636399883       -1.5949141542        0.7876086157
 C         -1.7090753363       -0.7182489786        0.1297529298
 H         -1.9457671088       -0.4294239532       -0.8803802983
 N         -3.7138474826       -2.0549986612        0.1333727698
 S         -4.5487724661       -1.0777361361       -0.9251609556
 O         -5.8835622236       -1.6382180936       -0.9515195992
 O         -3.8770168506       -1.0059685735       -2.1982059785
 C         -4.5874448421        0.5382270928       -0.1669682885
 C         -4.2956326625        1.6472668757       -0.9332874676
 C         -4.3386312771        2.9021486995       -0.3466946021
 C         -4.6702983313        3.0252261151        0.9932181647
 C         -4.9672428173        1.9017535297        1.7497118862
 C         -4.9293420432        0.6456505934        1.1668201683
 H         -5.1623322452       -0.2417974538        1.7318901223
 H         -5.2270416268        2.0007983050        2.7913081431
 H         -4.6987899529        4.0019290798        1.4500146751
 H         -4.1106215862        3.7757878292       -0.9362937245
 H         -4.0362069182        1.5050485790       -1.9697217440
 H         -4.3257364442       -2.6353111663        0.6868005529
 H         -2.9407953672       -2.6962424233        2.5887242532
 H         -0.9068207243       -1.8621279553        3.7123913603
 H          0.6105131669       -0.3153101364        2.5350241177
 H          0.4659677422        1.5993159404        0.6434744071
 C          0.0775249020        0.9859358558       -1.3669395112
 C         -0.8779796795        2.0960124750       -1.6817450826
 C          0.5847201606        2.2657486242       -1.9590746952
 H          0.9217344505        2.2622187289       -2.9849320031
 H          1.1567912350        2.9160225228       -1.3134222258
 H         -1.5456845981        1.9713427915       -2.5207027278
 H         -1.3050313383        2.6374836257       -0.8514308448
 H          0.0705069420        0.1086057542       -2.0050746924
