  62
        -98.94515978
 C         -2.2643274070       -0.7440731887       -0.0143587655
 C         -3.2595642776       -0.6622234017        0.9923110014
 C         -4.1292075612        0.5196676116        0.9485961847
 C         -3.9139935332        1.4581945138        0.0088026321
 C         -4.7520322266        2.6883967237       -0.1818253933
 C         -5.8956917166        2.4328365694       -1.1736959468
 C         -6.6978445168        1.1653199537       -0.8785583770
 H         -7.4944492123        1.1044161338       -1.6231622185
 H         -6.0543017337        0.2947568329       -1.0245095396
 C         -7.3081969460        1.1135097542        0.5289942354
 H         -7.3316867283        2.1152116868        0.9594746858
 H         -8.3418068261        0.7702575536        0.4497641072
 C         -6.5963316286        0.1638451184        1.4941790784
 H         -6.4881399996       -0.8185919668        1.0278990764
 H         -7.2289460294        0.0394534469        2.3769799025
 C         -5.2156214755        0.6202295927        1.9823132850
 H         -4.9147595203       -0.0440283387        2.7976324053
 H         -5.2810840679        1.6371171197        2.3745002461
 H         -5.4702850669        2.3436084356       -2.1760391179
 H         -6.5609811947        3.2980929692       -1.1630399309
 H         -5.1540519027        3.0004704364        0.7801228941
 H         -4.1129488719        3.4819254589       -0.5730322458
 O         -2.9251150802        1.3657879094       -0.9158691344
 C         -2.0814523650        0.2648331113       -0.9600916338
 O         -1.2380638245        0.3124567534       -1.8769788950
 O         -3.4137060719       -1.5395561303        1.8829485157
 C         -1.3441575475       -1.9545090327       -0.0093118638
 C          0.0338099721       -1.4918917190        0.3931512662
 C          0.3173261598       -1.2988606681        1.7426974267
 C          1.5457457306       -0.8081901174        2.1421410120
 C          2.5139658556       -0.4893484487        1.2052664459
 C          2.2337736917       -0.6604610040       -0.1430334697
 C          1.0073680925       -1.1768747545       -0.5412958082
 H          0.7996723848       -1.2929935609       -1.5931023820
 N          3.2042746263       -0.3274839929       -1.1036562218
 S          4.0026806759        1.1411090020       -0.9516473749
 O          3.1961137047        2.1289070727       -0.2725282251
 O          4.4398283155        1.4745974976       -2.2900747652
 C          5.4316387688        0.7355766197        0.0331890451
 C          5.7193061341        1.4700693649        1.1668392005
 C          6.8414493371        1.1419335524        1.9119508348
 C          7.6525028308        0.0912736437        1.5116544722
 C          7.3516189087       -0.6348455473        0.3688609092
 C          6.2322260676       -0.3111249163       -0.3808844179
 H          5.9650301814       -0.8480604497       -1.2755427573
 H          7.9845540569       -1.4513507354        0.0607700403
 H          8.5241477723       -0.1629467028        2.0937854136
 H          7.0767149200        1.7060206953        2.8001797083
 H          5.0561921046        2.2746358934        1.4430363580
 H          2.8864859965       -0.4596927967       -2.0534514626
 H          3.4693911629       -0.0935243115        1.5083348621
 H          1.7527918398       -0.6679059441        3.1922014764
 H         -0.4468740405       -1.5257893227        2.4729809202
 H         -1.7300034185       -2.6075454656        0.7849577459
 C         -1.3832054735       -2.7083256424       -1.3217493737
 C         -0.8181611284       -4.0949031147       -1.3870973034
 C         -2.2998071608       -3.8850000874       -1.4627335905
 H         -2.7964173583       -4.0394096311       -2.4090336855
 H         -2.8994803097       -4.1563527880       -0.6063375143
 H         -0.2952313662       -4.3973587736       -2.2814416357
 H         -0.4102244530       -4.5075624885       -0.4769885725
 H         -1.2651940862       -2.0698236506       -2.1889146184
