  62
        -98.93108605
 C          2.4299342695        1.3255518404        0.3821680010
 C          2.4314289799        0.0884302907       -0.3035261394
 C          3.6728062901       -0.7109758491       -0.2188614793
 C          4.6962647798       -0.2624774692        0.5282638311
 C          6.0501722498       -0.8859439790        0.7569566112
 C          6.0811909101       -2.3997082291        1.0176985107
 C          6.6716800205       -3.2049065986       -0.1412506694
 H          7.5214317805       -2.6536439683       -0.5494839790
 H          7.0548396506       -4.1500552686        0.2498671904
 C          5.6948042309       -3.5343553084       -1.2687273997
 H          6.2698900612       -3.9782241580       -2.0848239997
 H          4.9854194910       -4.2894505486       -0.9232673602
 C          4.9036185108       -2.3450341683       -1.8167017296
 H          4.5738353211       -2.6000836881       -2.8261215397
 H          5.5445637407       -1.4683304582       -1.9043836491
 C          3.6553619605       -2.0032940389       -0.9888655098
 H          2.7865522907       -1.9199138288       -1.6493133100
 H          3.4283981405       -2.8214841691       -0.2995584601
 H          5.0804069001       -2.7558685093        1.2565960604
 H          6.7034512999       -2.5720027492        1.8974288308
 H          6.4638020995       -0.3533448892        1.6164790015
 H          6.6903417000       -0.6438059986       -0.0952482285
 O          4.6334479794        0.9195697306        1.2072385515
 C          3.5179443492        1.7326288504        1.1574275915
 O          3.6099501388        2.7713494802        1.8417921518
 O          1.4559085502       -0.3438991193       -0.9698358598
 C          1.2263895693        2.2527802002        0.3716079110
 C         -0.0372805606        1.4684514499        0.6249138804
 C         -0.2115568108        0.8704661594        1.8700796302
 C         -1.3514313007        0.1429534091        2.1521028096
 C         -2.3441134405       -0.0045593608        1.1990476293
 C         -2.1818592802        0.5888484397       -0.0445803305
 C         -1.0369579003        1.3250319800       -0.3232065599
 H         -0.9156074301        1.7619133403       -1.3023495397
 N         -3.1778630599        0.4286340298       -1.0214381908
 S         -4.7764349501        0.7064004193       -0.6050652611
 O         -5.4382209699        1.0426315596       -1.8470573612
 O         -4.8846067406        1.6754578290        0.4611813992
 C         -5.3619502299       -0.8806269410       -0.0492349218
 C         -5.9502770803       -1.0002764815        1.1945204680
 C         -6.4085833301       -2.2432922117        1.6026348575
 C         -6.2725214997       -3.3383478314        0.7633779871
 C         -5.6818316994       -3.2008609509       -0.4840463427
 C         -5.2222510595       -1.9609659307       -0.8981524121
 H         -4.7598373993       -1.8128952302       -1.8598037620
 H         -5.5774642290       -4.0549036506       -1.1337886129
 H         -6.6290855096       -4.3047960016        1.0830549767
 H         -6.8682366304       -2.3522171622        2.5718245273
 H         -6.0300309706       -0.1220948417        1.8154922883
 H         -2.9499131098        0.8418350701       -1.9136230506
 H         -3.2345732704       -0.5738717410        1.4101604889
 H         -1.4689568009       -0.3169501313        3.1217469194
 H          0.5667814790        0.9806361293        2.6136035804
 H          1.3801602290        2.9219258999        1.2343734713
 C          1.1421703495        3.1490914806       -0.8552232187
 C          2.3856370796        3.6384169611       -1.5341591982
 C          1.4819794599        2.6701558411       -2.2335041688
 H          0.8891400201        3.0323011613       -3.0613569388
 H          1.8064575302        1.6477603212       -2.3433589990
 H          2.4137679994        4.6611778712       -1.8788156179
 H          3.3326914595        3.2777619911       -1.1597451281
 H          0.3274545993        3.8633062604       -0.7746610187
