  62
        -98.93998317
 C         -1.9265019580       -1.6054959966       -0.0193722765
 C         -1.6779819561       -0.3456711445       -0.6115172912
 C         -2.8042814690        0.6066828489       -0.6178615980
 C         -3.9936132408        0.2302495720       -0.1121289292
 C         -5.3181594281        0.9609796499       -0.0325830852
 C         -5.3919132858        2.4687177429       -0.2593852998
 C         -4.7079523745        3.3111635724        0.8173334685
 H         -4.7237986995        4.3548644162        0.4960773058
 H         -5.2932852937        3.2385418477        1.7375779962
 C         -3.2723328164        2.9149491882        1.1537768835
 H         -2.9184822044        3.5830853802        1.9436874756
 H         -3.2580324383        1.9022068938        1.5618488055
 C         -2.2788239709        2.9984544010       -0.0033161030
 H         -1.2817683750        2.8218930302        0.4086100075
 H         -2.2986417468        4.0037607457       -0.4285264261
 C         -2.4918131608        1.9803308638       -1.1362978885
 H         -3.2537681494        2.3158620728       -1.8353207842
 H         -1.5517330627        1.8879203499       -1.6878423825
 H         -5.0075731598        2.7200814267       -1.2434401082
 H         -6.4533546744        2.7316198532       -0.2586653702
 H         -5.9727863946        0.4693172327       -0.7608641028
 H         -5.7286533710        0.7271443675        0.9549387444
 O         -4.1940037672       -1.0173316635        0.4089907834
 C         -3.1734716542       -1.9466934063        0.4980278006
 O         -3.4964207423       -3.0186645075        1.0493942881
 H          1.7968856101       -2.3193027836       -0.8019218569
 C          1.6254972051       -1.8834525189        0.1696228271
 C          0.3765601603       -1.9744701955        0.7604990476
 C          0.1921820465       -1.4012701153        2.0163688837
 C          1.2260772889       -0.7433433991        2.6535497493
 C          2.4678476213       -0.6372994097        2.0508295915
 C          2.6630665181       -1.2100694082        0.8023521482
 N          3.9189114853       -1.1020189513        0.1764970331
 S          4.6096409468        0.4196671550        0.0701372365
 O          5.5811235172        0.3130872379       -0.9958289508
 O          5.1292085939        0.7992335893        1.3604615932
 C          3.2882948090        1.5178407248       -0.4052911459
 C          2.7590624079        2.3979181866        0.5155513876
 C          1.7186520932        3.2257956012        0.1264687324
 C          1.2264782294        3.1565342927       -1.1671084742
 C          1.7653994684        2.2626127430       -2.0783695950
 C          2.8053027340        1.4331096419       -1.6956013989
 H          3.2554646866        0.7339917722       -2.3821271496
 H          1.3739904335        2.2049611082       -3.0812134639
 H          0.4156535468        3.8015515397       -1.4672080400
 H          1.2937413515        3.9207377186        0.8335216332
 H          3.1733177802        2.4244243175        1.5102434241
 H          3.9597004860       -1.5639599495       -0.7207557812
 H          3.2837808025       -0.1181282536        2.5266692798
 H          1.0647526972       -0.3024598644        3.6257913408
 H         -0.7827883605       -1.4694139999        2.4807356678
 C         -0.8050447292       -2.6240310286        0.0835093463
 H         -1.1789736622       -3.4302421796        0.7303887360
 C         -0.4951053105       -3.1993334181       -1.2824549930
 C          0.1360055682       -4.5532213670       -1.4037184443
 C         -1.3017508107       -4.3593847989       -1.7796063946
 H         -1.5711095443       -4.3900795064       -2.8247772393
 H         -2.0641121707       -4.7511021123       -1.1220454332
 H          0.8519650432       -4.7227079888       -2.1940140836
 H          0.3539272612       -5.0864463276       -0.4907189433
 H         -0.2220937631       -2.4381390146       -2.0045865810
 O         -0.5716027128       -0.0255332891       -1.1167475284
