  62
        -98.94904191
 C         -0.8914121189       -1.3479744137        0.2371092296
 C         -1.4449917110       -0.2721810208        0.9680341400
 C         -2.2723619261        0.6674854295        0.2001862216
 C         -2.3957087589        0.4980962307       -1.1290825849
 C         -3.2176576619        1.3740514807       -2.0297612789
 C         -4.6453854907        0.8324774230       -2.1854259039
 C         -5.3205073442        0.4902814134       -0.8572250356
 H         -4.7933269611       -0.3487105406       -0.3973165321
 H         -6.3323026286        0.1485267533       -1.0854529782
 C         -5.3858695805        1.6561406345        0.1391609800
 H         -6.3869542107        1.6881281039        0.5741372101
 H         -5.2301477159        2.5997057739       -0.3850061979
 C         -4.3981545972        1.5521970997        1.3026042408
 H         -4.4847336557        0.5671244214        1.7676070274
 H         -4.6800637385        2.2951211768        2.0533456982
 C         -2.9229069818        1.7923949795        0.9560199765
 H         -2.3727679242        1.8693233788        1.8982899706
 H         -2.8206051649        2.7350775093        0.4135134828
 H         -4.6066572336       -0.0731200708       -2.7952609898
 H         -5.2402769371        1.5761022087       -2.7190249543
 H         -2.7352485817        1.4018454005       -3.0087973837
 H         -3.2425688253        2.3833715793       -1.6226312377
 O         -1.8183352698       -0.5272631862       -1.8045119811
 C         -1.0540114944       -1.4752133114       -1.1431428834
 O         -0.5937946642       -2.3703010352       -1.8779005278
 O         -1.2514705466       -0.1013575820        2.2024449699
 C         -0.0067021054       -2.3493394541        0.9584787125
 C          1.3724588716       -2.3158637257        0.3477583076
 C          2.1012117295       -3.4507062802        0.0184787844
 C          3.3369521905       -3.3324522385       -0.5947735010
 C          3.8593466657       -2.0912713054       -0.9075181988
 C          3.1443534399       -0.9486799315       -0.5649508456
 C          1.9304262591       -1.0701917439        0.0879704024
 H          1.3803936597       -0.1795219074        0.3551021633
 N          3.6369147761        0.3321454934       -0.8539343291
 S          2.5746000224        1.5746547892       -1.2136022500
 O          1.3935401772        1.1129381758       -1.9052385728
 O          3.3894103081        2.5371699725       -1.9279354265
 C          2.1530640906        2.2630391117        0.3722884730
 C          0.8413215891        2.5947079013        0.6443192372
 C          0.5362883733        3.1728275666        1.8663076470
 C          1.5425443689        3.4035216025        2.7908575843
 C          2.8559028333        3.0646353003        2.5021630507
 C          3.1684919306        2.4927273814        1.2798414624
 H          4.1765086195        2.2196131848        1.0163145660
 H          3.6351020759        3.2444944240        3.2251807779
 H          1.2985997492        3.8489076500        3.7423863384
 H         -0.4851964633        3.4331310171        2.0915623148
 H          0.0839715928        2.3792492793       -0.0946307854
 H          4.4620867362        0.3551446218       -1.4350807429
 H          4.8065403041       -2.0027745357       -1.4173323729
 H          3.8914103765       -4.2218285652       -0.8534951012
 H          1.6960865964       -4.4276381253        0.2253540758
 H          0.0616648236       -1.9879590850        1.9955865213
 C         -0.6385865947       -3.7250379024        0.9588119352
 C         -0.3624256276       -4.6849929936        2.0763661645
 C         -1.7057398303       -4.0308528683        1.9653993791
 H         -2.5497646172       -4.6289627440        1.6561513458
 H         -1.9572817478       -3.2527717642        2.6712256271
 H         -0.2860863052       -5.7367345526        1.8452633273
 H          0.2961152866       -4.3563463903        2.8658517657
 H         -0.7654128194       -4.1225651759       -0.0421192133
