  62
        -98.93399140
 C         -1.9949591393       -0.0729535695       -0.0504264694
 C         -2.9398462494       -0.9781924294       -0.6121438494
 C         -4.2873297394       -0.9784843994       -0.0373072993
 C         -4.5694858692       -0.1602892295        0.9914166809
 C         -5.8870733591       -0.0545447095        1.7096055310
 C         -6.9057411491        0.8611945407        1.0173428513
 C         -7.5210659493        0.2984807809       -0.2645835688
 H         -7.9125150293       -0.7006170891       -0.0702968389
 H         -8.3696287893        0.9365215410       -0.5195371186
 C         -6.5605372394        0.2538176410       -1.4612627389
 H         -5.7048300993        0.9042177509       -1.2659687689
 H         -7.0643286695        0.6464068112       -2.3474323288
 C         -6.0491853195       -1.1433418090       -1.8127755491
 H         -5.3495984096       -1.0523665289       -2.6476249292
 H         -6.8837636396       -1.7675793489       -2.1398398192
 C         -5.3254434695       -1.8588288992       -0.6647206593
 H         -6.0443774594       -2.1903268393        0.0845402007
 H         -4.8161003496       -2.7351809892       -1.0731118095
 H         -7.7122254090        1.0479226606        1.7302236714
 H         -6.4257038791        1.8185438007        0.8013755114
 H         -6.3161649192       -1.0493967395        1.8336485309
 H         -5.6705038690        0.3564242703        2.6981157810
 O         -3.6413886491        0.6728588003        1.5228201809
 C         -2.3451002691        0.7551381603        1.0200288208
 O         -1.6473560090        1.5821742402        1.6347818908
 O         -2.6631779196       -1.7617920292       -1.5609170496
 C         -0.6293966194       -0.0909582495       -0.7074251595
 C          0.5138722807       -0.6155052297        0.1345184203
 C          0.5073164508       -0.6614833499        1.5210499603
 C          1.6103542509       -1.1291585601        2.2171886501
 C          2.7402136908       -1.5623909101        1.5503095499
 C          2.7572110206       -1.5280750299        0.1616401699
 C          1.6520062406       -1.0601124697       -0.5316478499
 H          1.6707997205       -1.0515568095       -1.6127136199
 N          3.9102513105       -1.9585540399       -0.5264054403
 S          5.3272979506       -1.1345026600       -0.1687038603
 O          6.2119680505       -1.3926306899       -1.2817646504
 O          5.7999660707       -1.5396418703        1.1297668996
 C          4.8332190107        0.5787190500       -0.1426640600
 C          4.5459786609        1.1895045898        1.0609677302
 C          4.0795788410        2.4942167899        1.0542164004
 C          3.9064588209        3.1600769901       -0.1489611495
 C          4.2012889908        2.5330580402       -1.3500707696
 C          4.6640111507        1.2275743702       -1.3497956198
 H          4.9116289205        0.7088799603       -2.2621867300
 H          4.0676082007        3.0552479504       -2.2840787295
 H          3.5410055610        4.1751584401       -0.1490133793
 H          3.8463784011        2.9845911398        1.9854899105
 H          4.6971562310        0.6399284097        1.9752598801
 H          3.7845033304       -2.0020534697       -1.5280544003
 H          3.6076663308       -1.9233192102        2.0787849498
 H          1.5842202310       -1.1549484603        3.2961269801
 H         -0.3565674991       -0.3167662000        2.0644610904
 H         -0.7671124295       -0.8219680194       -1.5213087596
 C         -0.1724441393        1.2019679806       -1.3890311694
 C         -1.0397310693        2.4130594606       -1.5356034191
 C          0.1597898708        2.4540242904       -0.6380077392
 H          1.0235239708        3.0214471404       -0.9507926392
 H         -0.0220215891        2.4589949903        0.4241636708
 H         -1.0162442593        2.9515512108       -2.4716734590
 H         -2.0121152492        2.3974759606       -1.0654212090
 H          0.4707572506        0.9924807106       -2.2381861995
