  62
        -98.94784284
 C          1.0963025434        1.1674909703       -0.0104896825
 C          1.5804836987        0.1923820774        0.8928582448
 C          2.4966484239       -0.8046895646        0.3294879971
 C          2.8035103368       -0.7641819308       -0.9798265246
 C          3.6931687196       -1.7343307131       -1.7090670028
 C          5.1912236269       -1.4191479967       -1.5966771032
 C          5.8163212644       -1.7046273049       -0.2304986674
 H          5.5769257661       -2.7252672686        0.0697713140
 H          6.8993190554       -1.6472973864       -0.3563021375
 C          5.3947842276       -0.7269557528        0.8752327397
 H          4.9622682874        0.1684474575        0.4229597970
 H          6.2768081753       -0.4092123254        1.4356435306
 C          4.3998319961       -1.3015279159        1.8832840420
 H          4.8678847290       -2.1199101019        2.4346769528
 H          4.1441323274       -0.5153754203        2.5979556992
 C          3.0958692473       -1.8163785331        1.2596087272
 H          3.2718139513       -2.7563943140        0.7362289744
 H          2.3779777813       -1.9949403906        2.0642736367
 H          5.7076231870       -2.0268891540       -2.3433556144
 H          5.3465219535       -0.3696561915       -1.8573925687
 H          3.4061795548       -1.6846731585       -2.7619510628
 H          3.5020321384       -2.7461277040       -1.3492248635
 O          2.3093177048        0.1834820177       -1.8197979792
 C          1.4467567149        1.1698720252       -1.3607746475
 O          1.0731594244        1.9722839593       -2.2378519296
 O          1.2544884451        0.1504906911        2.1098040246
 C          0.1183763758        2.2084306654        0.4945676478
 C         -1.2217209453        2.0938694336       -0.1937627958
 C         -2.0880581261        3.1748698009       -0.3165542947
 C         -3.3232708548        3.0178847673       -0.9201548214
 C         -3.7310167871        1.7854360355       -1.3979831557
 C         -2.8729460573        0.6980881573       -1.2797976930
 C         -1.6343077123        0.8619859902       -0.6801714241
 H         -0.9676439086        0.0162689943       -0.6242068066
 N         -3.2379864034       -0.5655501896       -1.7603334392
 S         -2.6110463609       -1.9614488345       -1.0997507722
 O         -1.2386973979       -2.1460869169       -1.5038810974
 O         -3.5354657588       -2.9920521627       -1.5240973485
 C         -2.7217531381       -1.7436118060        0.6669302346
 C         -1.5743838031       -1.6976406095        1.4306218764
 C         -1.6809776830       -1.4783877404        2.7944644653
 C         -2.9315687185       -1.3195787644        3.3701807477
 C         -4.0784343505       -1.3854347062        2.5927381324
 C         -3.9756351523       -1.5947595569        1.2274790020
 H         -4.8449406486       -1.6553477441        0.5933166501
 H         -5.0495084907       -1.2673726015        3.0458277735
 H         -3.0106767340       -1.1442953297        4.4314965414
 H         -0.7809873649       -1.4102113716        3.3847089334
 H         -0.6140292618       -1.8186522622        0.9533014049
 H         -4.1962423777       -0.6644885516       -2.0583742483
 H         -4.6945334164        1.6651991408       -1.8683891010
 H         -3.9820968174        3.8674553909       -1.0155166818
 H         -1.7908026311        4.1419744742        0.0548388192
 H         -0.0331512750        1.9707489962        1.5594495011
 C          0.7140878683        3.5991828390        0.3892899484
 C          0.4369982986        4.6319128148        1.4397774366
 C          1.7910651114        3.9970277545        1.3527691398
 H          2.6194270786        4.5851995272        0.9872968549
 H          2.0679778533        3.2762678862        2.1084464382
 H          0.3364356033        5.6625495353        1.1341740022
 H         -0.1975207465        4.3496930076        2.2663098730
 H          0.8176702801        3.9271919841       -0.6389527608
