  62
        -98.94040109
 C         -2.4726257319       -1.1695755696        0.0436425873
 C         -2.5157920043        0.0274504775       -0.7104502275
 C         -3.8578810607        0.5699052701       -0.9695293500
 C         -4.9370250369       -0.0922059076       -0.5132924380
 C         -6.3560409783        0.3741148971       -0.6601335874
 C         -6.7874783842        1.2244397329        0.5429816553
 C         -5.7957595493        2.3303514498        0.9039343898
 H         -6.2175675314        2.8839121891        1.7455650009
 H         -4.8652577074        1.8758669570        1.2518850637
 C         -5.4841950971        3.3021521928       -0.2427231017
 H         -6.2537970468        3.2270411104       -1.0116994401
 H         -5.5118623322        4.3224451820        0.1454362602
 C         -4.1085224533        3.1070972580       -0.8833463022
 H         -3.3397040788        3.0868577300       -0.1064656602
 H         -3.9047184810        3.9709208978       -1.5217803288
 C         -3.9473143735        1.8513350974       -1.7495861094
 H         -4.7555604559        1.8023256556       -2.4822311415
 H         -2.9990932674        1.9390747390       -2.2884771688
 H         -7.7618754870        1.6642486526        0.3231619699
 H         -6.8979783217        0.5676505806        1.4088487644
 H         -6.4504294919        0.9498790760       -1.5786129239
 H         -7.0010871609       -0.5037471010       -0.7236026353
 O         -4.8545197571       -1.2522690544        0.1873195039
 C         -3.6256750660       -1.8132497914        0.4921561077
 O         -3.6903181291       -2.8657635173        1.1591265871
 H          1.5448100326       -1.3125443491       -0.0486869667
 C          1.1163806437       -0.7088938877        0.7328895453
 C         -0.2247305498       -0.8293573410        1.0622917183
 C         -0.7323757975       -0.0382422623        2.0896213562
 C          0.0748562403        0.8710594649        2.7445076494
 C          1.4066287123        1.0069041955        2.3945365518
 C          1.9309058508        0.2047959020        1.3879730836
 N          3.2968759588        0.2825785863        1.0637125812
 S          3.8222355859        0.0376040074       -0.5205237678
 O          3.1575382171        0.9479533246       -1.4261516430
 O          3.7284001875       -1.3651248593       -0.8360265598
 C          5.5375762739        0.4909771784       -0.3364241066
 C          6.3953108949       -0.4152588073        0.2582760547
 C          7.7253034148       -0.0662937657        0.4292234342
 C          8.1736184947        1.1760091820        0.0050021111
 C          7.3018194333        2.0741318053       -0.5917174324
 C          5.9695393683        1.7318611821       -0.7640484499
 H          5.2573739457        2.3943792027       -1.2294998741
 H          7.6538755538        3.0376187678       -0.9234698942
 H          9.2096951141        1.4447873419        0.1376214339
 H          8.4067408835       -0.7627308348        0.8905873109
 H          6.0036892132       -1.3715816194        0.5630638754
 H          3.7388304063        1.1023865476        1.4579305929
 H          2.0349351371        1.7242238398        2.9004747818
 H         -0.3370003832        1.4858615312        3.5309849348
 H         -1.7753026901       -0.1395777996        2.3595928760
 C         -1.1364609277       -1.8111369029        0.3669805150
 H         -1.3532378820       -2.6317538277        1.0676892106
 C         -0.5296448948       -2.3979358965       -0.8913326811
 C          0.3383428412       -3.6167358144       -0.8168062811
 C         -1.0377817317       -3.7113594145       -1.4021018284
 H         -1.1396512556       -3.8454479352       -2.4685787197
 H         -1.8079461667       -4.2005647716       -0.8232515170
 H          1.1906534511       -3.6810136121       -1.4769673924
 H          0.5043834307       -4.0512496377        0.1575250217
 H         -0.2790727968       -1.6387320852       -1.6251922079
 O         -1.4891751037        0.6151833889       -1.1432513507
