  62
        -98.93609998
 C         -1.7157596313       -0.2558207284       -0.3390162577
 C         -2.9024546115       -0.5496698962       -1.0500236192
 C         -4.1509218647       -0.4687551061       -0.2803045105
 C         -4.1061356512       -0.1527281221        1.0266429839
 C         -5.2744567128       -0.0805056505        1.9743513767
 C         -6.3166255618        1.0183271514        1.6897190649
 C         -7.5101829151        0.5548551621        0.8453430049
 H         -7.6238293134       -0.5238917659        0.9596900922
 H         -8.4196287312        1.0092042388        1.2438320283
 C         -7.4511782038        0.9073319344       -0.6441042742
 H         -7.7124258562        1.9602997693       -0.7721670177
 H         -8.2119887443        0.3157576793       -1.1580384454
 C         -6.1033677549        0.6839647675       -1.3302933674
 H         -6.2496489520        0.7793148119       -2.4081194609
 H         -5.4085513828        1.4764604542       -1.0423911286
 C         -5.4405013327       -0.6724538564       -1.0210479319
 H         -6.1150148158       -1.3099202791       -0.4512590868
 H         -5.1876339669       -1.1840768628       -1.9520351015
 H         -6.6944395002        1.3531965811        2.6570558107
 H         -5.8268907295        1.8717147732        1.2216657224
 H         -4.8374097297        0.0897755902        2.9603162983
 H         -5.7707463050       -1.0534983465        1.9932929747
 O         -2.9389450672        0.1080149788        1.6768235467
 C         -1.7200867335        0.0746369232        1.0161433313
 O         -0.7392361551        0.3479709170        1.7323482480
 O         -2.9172067561       -0.8774218888       -2.2675471683
 C         -0.3867066975       -0.3100134440       -1.0690546962
 C          0.5301810796       -1.3130276202       -0.4143008329
 C          0.0369724111       -2.5789114241       -0.1063163947
 C          0.8416456736       -3.5216338020        0.5019166301
 C          2.1598799601       -3.2282652608        0.8054372211
 C          2.6659212919       -1.9732493645        0.4926901733
 C          1.8520625463       -1.0258781750       -0.1148503289
 H          2.2641908383       -0.0603420303       -0.3532294070
 N          3.9881080524       -1.6373463936        0.8104552501
 S          4.8859524342       -0.6370295309       -0.1788158194
 O          4.5954681334       -0.8636382553       -1.5754222121
 O          6.2571470211       -0.8674644950        0.2247189786
 C          4.4178014481        1.0169361013        0.2851051357
 C          4.1377501650        1.2957447480        1.6078604447
 C          3.8047398630        2.5936142176        1.9610126915
 C          3.7654533760        3.5866235215        0.9941463980
 C          4.0569551391        3.2920694314       -0.3286515134
 C          4.3870519784        1.9951357662       -0.6891929941
 H          4.6097531768        1.7184876189       -1.7076760749
 H          4.0256660756        4.0660261730       -1.0792210500
 H          3.5036823165        4.5952809260        1.2727831607
 H          3.5725514688        2.8251491044        2.9880803422
 H          4.1692236452        0.5008364860        2.3341487171
 H          4.5410912727       -2.3793839496        1.2124880005
 H          2.7896571177       -3.9630979325        1.2835026127
 H          0.4423489772       -4.4962910395        0.7396081687
 H         -0.9919841200       -2.8108170646       -0.3458511184
 H         -0.6222987743       -0.6743101264       -2.0805382087
 C          0.2089615608        1.0780080706       -1.1779971281
 C          1.1110681463        1.4279470265       -2.3222491118
 C         -0.2762362918        1.9908833798       -2.2625035413
 H         -0.3980686823        3.0396333042       -2.0375563402
 H         -1.0187085707        1.6005812903       -2.9432696686
 H          1.9416615251        2.0913973758       -2.1351228484
 H          1.3209526436        0.6570226532       -3.0484909690
 H          0.4179078723        1.5177824841       -0.2088594857
