  62
        -98.94412919
 C         -2.0533566747       -1.3053728968       -0.1204591312
 C         -2.4407497870       -0.2576046052       -0.9904656711
 C         -3.8395107063        0.1833403798       -0.8780715946
 C         -4.6574980813       -0.4228364623        0.0009183158
 C         -6.0847926956       -0.0354299596        0.2548234497
 C         -6.1862179588        0.9949574598        1.3882862018
 C         -5.2274011473        2.1762236391        1.2378077936
 H         -5.4097469845        2.8516769328        2.0764932153
 H         -4.1996289731        1.8177580556        1.3330912350
 C         -5.3733045445        2.9489416744       -0.0806131917
 H         -6.3382086109        2.7245223513       -0.5368518483
 H         -5.3591772312        4.0188497286        0.1378542428
 C         -4.2597054080        2.6881653113       -1.0967804691
 H         -3.2864485184        2.8217037608       -0.6168800373
 H         -4.3393158501        3.4389304588       -1.8876726600
 C         -4.2802498720        1.3098167684       -1.7696562766
 H         -5.2734996617        1.1142000516       -2.1786736523
 H         -3.5657200905        1.3345098234       -2.5976555164
 H         -7.2134987528        1.3613819354        1.4309498571
 H         -5.9646938361        0.4934721844        2.3331908997
 H         -6.5143907944        0.3703488269       -0.6589451811
 H         -6.6390857116       -0.9312400465        0.5397544536
 O         -4.2550215973       -1.4397792605        0.8045488349
 C         -2.9461235195       -1.8884000525        0.7822864871
 O         -2.7028217226       -2.8018525014        1.5956450635
 H          0.9538614181       -0.0150558907       -1.4361595912
 C          1.0028401164        0.1035682820       -0.3656373718
 C          0.2640665907       -0.7338011633        0.4553070598
 C          0.3256821306       -0.5416743976        1.8326329439
 C          1.1064637501        0.4631627359        2.3729195500
 C          1.8397599376        1.3005191946        1.5500491613
 C          1.7767532133        1.1216120773        0.1751344243
 N          2.5351840317        1.9630304113       -0.6634266919
 S          4.1834801333        1.9825307805       -0.3627769240
 O          4.4581736216        2.8488451821        0.7559918430
 O          4.8051243238        2.3495734053       -1.6155113420
 C          4.5675296001        0.2938199329        0.0666981904
 C          4.4524094301       -0.6675207631       -0.9179770907
 C          4.6712479036       -1.9946793191       -0.5881912581
 C          4.9942775700       -2.3367894540        0.7161356309
 C          5.1084937864       -1.3598339804        1.6926207214
 C          4.8897851030       -0.0303405602        1.3684222882
 H          4.9647838749        0.7599460104        2.0971728398
 H          5.3610797661       -1.6293887810        2.7054527970
 H          5.1579701817       -3.3718954159        0.9716187519
 H          4.5832123034       -2.7571830076       -1.3454025404
 H          4.2052515289       -0.3653299472       -1.9230419608
 H          2.3523894109        1.8142174335       -1.6454527742
 H          2.4566326287        2.0895010813        1.9491969845
 H          1.1451181364        0.5973721009        3.4432491169
 H         -0.2555099093       -1.1899656644        2.4739597192
 C         -0.6233326176       -1.8222239902       -0.0967992878
 H         -0.6188398365       -2.6559162237        0.6176064908
 C         -0.1799177925       -2.3376680710       -1.4505213205
 C          1.0933737605       -3.1220134943       -1.5499222211
 C         -0.2267782497       -3.8089756518       -1.7259509171
 H         -0.5103934783       -4.1385605420       -2.7143684053
 H         -0.5786442911       -4.4544335790       -0.9345197121
 H          1.7174410384       -2.9822394459       -2.4193036236
 H          1.6410006921       -3.2966478446       -0.6361918765
 H         -0.4328316705       -1.6736515514       -2.2675896136
 O         -1.6709513444        0.2860461399       -1.8253938706
