  62
        -98.93836442
 C         -2.2598149713       -1.2098298225        0.1993428313
 C         -2.4217244317       -0.0616678354       -0.6085005357
 C         -3.3558669513        0.9748968510       -0.1196027177
 C         -3.9699864992        0.7973149023        1.0641360155
 C         -4.9778715384        1.6896572923        1.7375471210
 C         -6.3757251361        1.5853404302        1.1048903783
 C         -6.3919350780        1.5650485281       -0.4214388458
 H         -5.7790114107        0.7341174152       -0.7754140015
 H         -7.4190950106        1.3691549368       -0.7400546126
 C         -5.9332915757        2.8565125910       -1.0942435469
 H         -6.5813687644        3.6760770129       -0.7757807741
 H         -6.0664257893        2.7272200207       -2.1713786796
 C         -4.4803133568        3.2630587905       -0.8409615109
 H         -4.3606636984        3.6942679737        0.1492819395
 H         -4.2345851688        4.0552968647       -1.5545146963
 C         -3.4576349507        2.1522552528       -1.0600889306
 H         -3.6012265963        1.7274556535       -2.0602090966
 H         -2.4562941070        2.6013203394       -1.0787286750
 H         -6.8340715679        0.6568523963        1.4537157950
 H         -6.9813311920        2.4176267277        1.4671269561
 H         -5.0413018899        1.3608130666        2.7771718212
 H         -4.6252125840        2.7168243026        1.7374180007
 O         -3.7662584251       -0.3159733653        1.8236952925
 C         -2.9249443586       -1.3314360216        1.4234865527
 O         -2.8521021571       -2.2835121890        2.2259787481
 O         -1.8331637852        0.1213988930       -1.7095165459
 C         -1.3475398214       -2.3726183146       -0.1654732802
 C          0.0898024870       -2.0169006737        0.1310375367
 C          0.7570150404       -2.5970279330        1.2038721391
 C          2.0618440072       -2.2417396283        1.4972182436
 C          2.7254991859       -1.2996311771        0.7315109585
 C          2.0621567986       -0.7041240382       -0.3329856179
 C          0.7592875658       -1.0725180463       -0.6339718961
 H          0.2419940229       -0.5900738450       -1.4497910457
 N          2.7208602436        0.2693687013       -1.1082018408
 S          3.3959802196        1.5689949096       -0.2839389780
 O          2.7045174281        1.8275336216        0.9588448286
 O          3.4303938385        2.6549844408       -1.2394219449
 C          5.0640900911        1.0359843474        0.0412072856
 C          5.8416440082        0.6467255604       -1.0320354591
 C          7.1438396107        0.2340116228       -0.7999765768
 C          7.6446442782        0.2200064263        0.4934618707
 C          6.8524562530        0.6169903171        1.5597802797
 C          5.5483719748        1.0302732840        1.3345080182
 H          4.8933606120        1.3418435803        2.1326752172
 H          7.2433289845        0.6055761830        2.5645767803
 H          8.6583803381       -0.1022537068        0.6716977076
 H          7.7628710488       -0.0753964100       -1.6265897102
 H          5.4147202247        0.6758454492       -2.0205688414
 H          2.1575399492        0.6022034708       -1.8786687852
 H          3.7396472035       -1.0139792467        0.9588785891
 H          2.5671859093       -2.7013199539        2.3329812175
 H          0.2362259646       -3.3159391627        1.8199460817
 H         -1.6341832918       -3.1905044082        0.5088565967
 C         -1.5305272501       -2.8449192402       -1.5942985159
 C         -1.0795173480       -4.2247032579       -1.9638887430
 C         -2.5426389381       -3.9093130609       -1.8876254166
 H         -3.1072498524       -3.8436284867       -2.8056100686
 H         -3.1079367822       -4.3042113474       -1.0557736691
 H         -0.6367173743       -4.3785189255       -2.9358406987
 H         -0.6524509696       -4.8357452626       -1.1831797661
 H         -1.4116883101       -2.0602817379       -2.3293171276
