  62
        -98.93521989
 C         -2.2027686063       -1.1476430215        0.6356544945
 C         -2.2097880674       -0.2269154094       -0.4392800972
 C         -3.0895226354        0.9508551210       -0.2913553875
 C         -3.7952547531        1.1187696546        0.8413682653
 C         -4.7361532780        2.2216170053        1.2802978982
 C         -5.2789448893        3.2331855228        0.2741440182
 C         -6.2348408584        2.6516349598       -0.7669794076
 H         -7.1610866320        2.3620213940       -0.2643766464
 H         -6.4774308342        3.4389420063       -1.4839651125
 C         -5.7212591426        1.4302906395       -1.5254360911
 H         -5.5720719275        0.6023264406       -0.8294083794
 H         -6.4993036668        1.1224779187       -2.2291205638
 C         -4.4355580770        1.6473043239       -2.3212542200
 H         -4.2742570721        0.7576710567       -2.9360354325
 H         -4.5574585503        2.4990967294       -2.9930717096
 C         -3.1650064264        1.8643210348       -1.4806781994
 H         -2.2984965232        1.6260646013       -2.1051395392
 H         -3.0647957607        2.9028030112       -1.1732496710
 H         -4.4609153107        3.7584898113       -0.2102608980
 H         -5.8340001407        3.9774390923        0.8517784929
 H         -5.5761916161        1.7175970514        1.7689832161
 H         -4.2054802356        2.7681718047        2.0680281386
 O         -3.7007142758        0.2370471770        1.8808949454
 C         -2.9136998172       -0.8984785431        1.8101410055
 O         -2.9227316636       -1.5905336998        2.8481480982
 H          0.2951806505       -0.6638348320        1.7175860339
 C          0.7574291427       -1.1230019777        0.8508856836
 C          0.0402122620       -2.0700422730        0.1295170993
 C          0.6357935603       -2.6419516977       -0.9861038246
 C          1.9123698700       -2.2658357400       -1.3664903320
 C          2.6217007969       -1.3225549275       -0.6463563003
 C          2.0331808311       -0.7401220302        0.4686977978
 N          2.7482263340        0.2134354864        1.2163320640
 S          3.4594416877        1.4972513112        0.3990425415
 O          3.5715336209        2.5500667710        1.3863073779
 O          2.7460759292        1.8270168479       -0.8126622868
 C          5.0892952194        0.8952444851        0.0084092946
 C          5.8847342128        0.4489867439        1.0456619400
 C          7.1567500722       -0.0200313580        0.7591788923
 C          7.6103430453       -0.0321475610       -0.5515739533
 C          6.8012307261        0.4234833626       -1.5811580704
 C          5.5272764075        0.8933321826       -1.3013958150
 H          4.8600248657        1.2517884047       -2.0692273753
 H          7.1555317248        0.4141643840       -2.5993983912
 H          8.6004610956       -0.3985831282       -0.7720944162
 H          7.7890387847       -0.3743782508        1.5572384610
 H          5.4953863341        0.4790777843        2.0495724187
 H          2.2440129304        0.5516069016        2.0234740170
 H          3.6131554762       -1.0234351619       -0.9446953626
 H          2.3606835890       -2.7122898797       -2.2409643815
 H          0.0903666328       -3.3602590236       -1.5754718589
 C         -1.3509376888       -2.4056248402        0.6094370217
 H         -1.2732466390       -2.7139509158        1.6655662426
 C         -1.9831292921       -3.5726438388       -0.1340666097
 C         -3.4728896683       -3.7167637120       -0.2158983951
 C         -2.6812515901       -3.4065013664       -1.4488886008
 H         -2.5665462675       -4.1832829592       -2.1908438655
 H         -2.7368611729       -2.4125586407       -1.8630058855
 H         -3.8991739005       -4.7029904306       -0.1094873282
 H         -4.0760264879       -2.9322214566        0.2182149817
 H         -1.4216232835       -4.4909870173        0.0072899901
 O         -1.5192585004       -0.3631041716       -1.4813039234
