  62
        -98.94811898
 C         -1.0548309106       -1.4472327477       -0.6927485438
 C         -0.6075449572       -2.1229824144        0.4679146821
 C          0.7637851739       -2.6474819485        0.4094274724
 C          1.5263121661       -2.4104994400       -0.6729835590
 C          2.9232418136       -2.9211651846       -0.9063413637
 C          4.0289030206       -2.0938915570       -0.2377886519
 C          4.1283438797       -2.2452315606        1.2803117332
 H          4.1657574398       -3.3042626326        1.5385347582
 H          5.0785036293       -1.8014431922        1.5847502415
 C          2.9984889647       -1.5637712409        2.0640990181
 H          3.4201658593       -1.0153407632        2.9102446165
 H          2.4971855623       -0.8202061214        1.4404541443
 C          1.9423439966       -2.5133254382        2.6288733402
 H          2.3902915619       -3.1450394615        3.4003115711
 H          1.1651398668       -1.9038489811        3.0976260666
 C          1.2742523898       -3.4199599392        1.5882492453
 H          1.9726130568       -4.1912625564        1.2613975629
 H          0.4154338682       -3.9028680464        2.0619338321
 H          4.9794304804       -2.4092541891       -0.6747478965
 H          3.8840442826       -1.0397130018       -0.4856223735
 H          2.9915976844       -3.9556526861       -0.5674022506
 H          3.0824753637       -2.8997836356       -1.9867212099
 O          1.0840891785       -1.6852799041       -1.7351225492
 C         -0.2093306267       -1.1892576081       -1.7712903868
 O         -0.4838023564       -0.5468082538       -2.8051884804
 O         -1.3201701200       -2.3088222444        1.4889442732
 C         -2.4706030499       -0.9025932301       -0.7724141742
 C         -2.6525120897        0.1907790197        0.2524375908
 C         -3.7512339855        0.2883688783        1.0957630196
 C         -3.8355899617        1.3211303647        2.0142882684
 C         -2.8286174386        2.2628895013        2.1203789463
 C         -1.7294530360        2.1787581575        1.2730468749
 C         -1.6623354759        1.1612219507        0.3370910984
 H         -0.8109605502        1.1034884841       -0.3256660396
 N         -0.6851990869        3.1152093805        1.3297373813
 S          0.8872551944        2.5691435707        1.1361259117
 O          1.0580280175        1.2340348959        1.6565430615
 O          1.7014786190        3.5979013142        1.7517486790
 C          1.1726470880        2.5942849550       -0.6192562731
 C          1.8420252800        1.5361102768       -1.1990552853
 C          2.0926898321        1.5596743567       -2.5607066053
 C          1.6725118184        2.6431667053       -3.3155153889
 C          1.0073119154        3.7032541175       -2.7182097389
 C          0.7545531839        3.6841907453       -1.3560676114
 H          0.2368991899        4.4871315131       -0.8582359889
 H          0.6808436434        4.5417907907       -3.3121442373
 H          1.8612270199        2.6559667211       -4.3773066371
 H          2.5964678306        0.7267856532       -3.0245365792
 H          2.1329200837        0.7039103751       -0.5759542123
 H         -0.7576833717        3.7909144255        2.0767889214
 H         -2.8872923733        3.0546698374        2.8516911259
 H         -4.6925189816        1.3849991115        2.6677117170
 H         -4.5370266901       -0.4469442186        1.0408202611
 H         -2.5591517465       -0.4431097245       -1.7683634419
 C         -3.4839161688       -2.0214853925       -0.6590124854
 C         -4.8233553426       -1.8938239325       -1.3185477783
 C         -3.8002871995       -2.8357439187       -1.8762905853
 H         -3.9555083457       -3.8977807352       -1.7599197432
 H         -3.3023875535       -2.5658993351       -2.7964462910
 H         -5.6852567279       -2.3124016782       -0.8211631751
 H         -5.0264491385       -0.9862245807       -1.8665036041
 H         -3.4252342965       -2.5428959481        0.2891441503
