  62
        -98.94481967
 C          1.9148166298        0.4702294503       -0.0379703298
 C          2.9468920997        0.5641754903        0.9344626503
 C          4.0907650398       -0.3403417695        0.7696442603
 C          4.1006365100       -1.2010335593       -0.2640657099
 C          5.2203273202       -2.1468873090       -0.5853723000
 C          6.2354788802       -1.5047095387       -1.5411781998
 C          6.6964716500       -0.1129965287       -1.1082843695
 H          7.4336943300        0.2271860916       -1.8386986793
 H          5.8498393499        0.5751591612       -1.1615653494
 C          7.3065790098       -0.0559091689        0.2991631806
 H          7.5914068699       -1.0583371890        0.6208219104
 H          8.2187093797        0.5433480812        0.2616572208
 C          6.4005794996        0.5770524707        1.3568970807
 H          6.0369585095        1.5428082007        0.9972094109
 H          7.0015641595        0.7659334206        2.2503641108
 C          5.1919911997       -0.2626647696        1.7893102104
 H          5.5227229298       -1.2638464296        2.0737316202
 H          4.7520402595        0.2162831202        2.6689317304
 H          7.0989530303       -2.1674143885       -1.6228227799
 H          5.7763689903       -1.4217663685       -2.5290389998
 H          5.7128791102       -2.4441684292        0.3385378299
 H          4.7962713504       -3.0328556990       -1.0612095803
 O          3.0941168201       -1.2728329992       -1.1685651900
 C          1.9798819500       -0.4499502694       -1.0839976800
 O          1.1501717101       -0.6545371393       -1.9942752401
 O          2.9106272094        1.3753676501        1.8974760405
 C          0.7344948596        1.4114143401        0.1389309003
 C         -0.4324832004        0.7130647898        0.7956335601
 C         -0.9094905805        1.1276970994        2.0332525101
 C         -1.9917026505        0.4952035291        2.6210548199
 C         -2.6202952903       -0.5602946308        1.9860300196
 C         -2.1482548601       -0.9828487205        0.7496222595
 C         -1.0685619701       -0.3435226502        0.1591898598
 H         -0.7040150300       -0.6810200499       -0.7995688403
 N         -2.7905266499       -2.0476534104        0.0892613892
 S         -4.4500300799       -1.9023740906       -0.0936975309
 O         -5.1048942699       -2.3354434910        1.1159113789
 O         -4.7778930896       -2.6479471004       -1.2885659911
 C         -4.7250311701       -0.1561583306       -0.3371571505
 C         -5.4355983503        0.5680703391        0.5978659996
 C         -5.5842446105        1.9337305791        0.4154953598
 C         -5.0174871305        2.5485189794       -0.6898207300
 C         -4.3091650203        1.8059130797       -1.6221168901
 C         -4.1581901101        0.4405527797       -1.4460269403
 H         -3.6141266699       -0.1643981000       -2.1540762504
 H         -3.8697303103        2.2842989700       -2.4826574699
 H         -5.1272802106        3.6125680994       -0.8275102497
 H         -6.1358792207        2.5133505888        1.1378799799
 H         -5.8554233803        0.0502000688        1.4446502694
 H         -2.3519305397       -2.2918907201       -0.7871796108
 H         -3.4630363702       -1.0678187110        2.4270516494
 H         -2.3492537406        0.8268070789        3.5837182799
 H         -0.4167652307        1.9436262194        2.5411849003
 H          1.0900958694        2.1860891000        0.8311838805
 C          0.2942058196        2.0828847403       -1.1480791196
 C         -0.5201399806        3.3379106802       -1.0686216894
 C          0.9021881995        3.3954077705       -1.5375216792
 H          1.0972126195        3.5818496008       -2.5830082292
 H          1.6421033893        3.8201818805       -0.8747665191
 H         -1.3058762105        3.4873752502       -1.7924088894
 H         -0.7466403907        3.7251536499       -0.0871325193
 H          0.0698435398        1.3844638305       -1.9433627397
