  62
        -98.94146377
 C         -2.3904168421       -1.2388657562        0.1445871103
 C         -3.3058063794       -0.5099195458        0.9452757511
 C         -4.0015308032        0.6054937558        0.2906977611
 C         -3.7214906664        0.8893085607       -0.9940444701
 C         -4.3033424679        2.0374264256       -1.7656755061
 C         -3.4175111209        3.2858089900       -1.6485211656
 C         -3.0208898442        3.6291698604       -0.2123729083
 H         -2.3690208740        2.8415101018        0.1744507290
 H         -2.4242239267        4.5434671373       -0.2498177794
 C         -4.2052716978        3.8273913381        0.7444563639
 H         -5.1167961066        4.0022070576        0.1720218518
 H         -4.0225643663        4.7208171136        1.3451510740
 C         -4.4337903742        2.6724920000        1.7214876892
 H         -3.4964981530        2.4333648208        2.2307606894
 H         -5.1428837481        3.0073633582        2.4830557571
 C         -4.9935783230        1.3813851449        1.1109050841
 H         -5.2821917073        0.7230116170        1.9354538149
 H         -5.8850585905        1.6086865554        0.5232026442
 H         -2.5030546765        3.1181085758       -2.2230922685
 H         -3.9482633960        4.1298438423       -2.0926480726
 H         -5.3029057229        2.2513016705       -1.3922885641
 H         -4.3699435483        1.7483096629       -2.8157926416
 O         -2.8222024749        0.1852190300       -1.7254906069
 C         -2.1160365507       -0.8794717370       -1.1768170547
 O         -1.3029636321       -1.3988171808       -1.9621271252
 O         -3.5224687389       -0.7733901092        2.1588744829
 C         -1.6203131590       -2.3678155650        0.8087769624
 C         -0.1464902113       -2.1873853381        0.5452520548
 C          0.6450143659       -3.1150905667       -0.1168550317
 C          1.9825328052       -2.8487561150       -0.3550309524
 C          2.5581518174       -1.6626608337        0.0612763248
 C          1.7748575882       -0.7269658593        0.7246455473
 C          0.4391028218       -0.9997209207        0.9682591742
 H         -0.1738112157       -0.2651808511        1.4785031999
 N          2.3518231263        0.4844783595        1.1554356698
 S          3.0929528158        1.4368752366       -0.0170436678
 O          3.0499605265        2.7829771775        0.5139168942
 O          2.4993307570        1.2413115288       -1.3195648352
 C          4.7794751759        0.8676995575       -0.0154290753
 C          5.3481754727        0.3981113823       -1.1829375903
 C          6.6643348607       -0.0368995222       -1.1585987327
 C          7.3835416055        0.0058638511        0.0260209829
 C          6.7980239803        0.4830968121        1.1894337274
 C          5.4834283522        0.9207280326        1.1718380003
 H          4.9913597564        1.3022869426        2.0507806754
 H          7.3607399016        0.5148319610        2.1083856126
 H          8.4067174859       -0.3348588795        0.0423013113
 H          7.1208542130       -0.4077643780       -2.0621896136
 H          4.7463338007        0.3771569491       -2.0776772727
 H          1.7187537372        1.0527625508        1.7008016371
 H          3.5970835598       -1.4498456963       -0.1311351910
 H          2.5847191153       -3.5748307917       -0.8795473249
 H          0.2080588678       -4.0332382111       -0.4731840106
 H         -1.7915054482       -2.2111159217        1.8874659222
 C         -2.1327913643       -3.7642552655        0.4946074647
 C         -3.5739589986       -3.9949134688        0.1534874211
 C         -2.5160550562       -4.1974570502       -0.8874074939
 H         -2.2831783827       -5.2087936887       -1.1875729123
 H         -2.4259617635       -3.4748309235       -1.6826328108
 H         -4.0672281802       -4.8626619288        0.5649889398
 H         -4.2125196440       -3.1271980425        0.0705290446
 H         -1.6646259510       -4.5140425425        1.1251525359
