  62
        -98.93682948
 C         -1.7980539154       -1.0916802230       -0.1164759491
 C         -3.1727253766       -1.3908597914        0.0497836858
 C         -4.1332688605       -0.3562256905       -0.3724936231
 C         -3.6653198969        0.8026310967       -0.8670107238
 C         -4.4602702564        1.9999694688       -1.3092598469
 C         -4.6078186360        3.0106026618       -0.1591140566
 C         -5.8027959279        2.7680712601        0.7620182608
 H         -5.7161608059        3.4664568316        1.5975878426
 H         -6.7234440041        3.0105078531        0.2270769182
 C         -5.9211974484        1.3471848152        1.3195588829
 H         -4.9375442490        0.9909966359        1.6311534348
 H         -6.5471183968        1.3888012737        2.2131175872
 C         -6.5434385651        0.3575289443        0.3231898314
 H         -6.9799597455        0.9133694416       -0.5064548132
 H         -7.3664767952       -0.1730853550        0.8064816891
 C         -5.5865161770       -0.7138546766       -0.2196128269
 H         -5.9614194094       -1.0707939868       -1.1850094666
 H         -5.5888752569       -1.5778396872        0.4526963316
 H         -4.7062499530        4.0118666925       -0.5832823996
 H         -3.6834598959        2.9915819690        0.4238639102
 H         -3.8915807112        2.4699524850       -2.1144379927
 H         -5.4293028690        1.6983817815       -1.6955981303
 O         -2.3349100444        1.0637896559       -0.9796557585
 C         -1.3696233315        0.1418659958       -0.6057133503
 O         -0.2030339865        0.5478897088       -0.7545020381
 O         -3.5821874750       -2.4761776092        0.5428794300
 C         -0.7900196563       -2.1446073190        0.3050427527
 C          0.3139819688       -1.5262659977        1.1259272086
 C         -0.0173666612       -0.9130447506        2.3323057519
 C          0.9559736839       -0.3394679677        3.1259688719
 C          2.2836118240       -0.3686155793        2.7354493854
 C          2.6270507627       -0.9809028753        1.5366449682
 C          1.6449015023       -1.5576410769        0.7407664581
 H          1.9380688087       -2.0021998969       -0.1950130611
 N          3.9747650505       -1.0651400176        1.1428367197
 S          4.4919470521       -0.5592366442       -0.3653082386
 O          3.7665017652       -1.2528298471       -1.3965122934
 O          5.9240634403       -0.7676900315       -0.3422700768
 C          4.1595535241        1.1931167156       -0.4053392380
 C          5.2127537073        2.0677321859       -0.2150851920
 C          4.9610620212        3.4294732434       -0.1938853550
 C          3.6632229471        3.8920552399       -0.3534478410
 C          2.6183512936        3.0001666683       -0.5372518711
 C          2.8616191540        1.6349757825       -0.5643874008
 H          2.0548517735        0.9332660328       -0.7045518776
 H          1.6045128679        3.3472253604       -0.6594084161
 H          3.4640899118        4.9521330380       -0.3350344324
 H          5.7733863985        4.1239534021       -0.0513451480
 H          6.2046162546        1.6619378124       -0.0974234128
 H          4.6230918953       -0.7309504223        1.8421918527
 H          3.0477714836        0.0758797642        3.3551550457
 H          0.6815405509        0.1352486530        4.0559907924
 H         -1.0553184108       -0.8900847124        2.6365356356
 H         -1.3604118630       -2.8205776490        0.9647949204
 C         -0.2709150088       -2.9988034617       -0.8417310823
 C         -1.1069795716       -3.2668960152       -2.0562749504
 C          0.1201815192       -2.4147688336       -2.1645779099
 H          0.9918362416       -2.8130518108       -2.6637070090
 H          0.0003453131       -1.3510148286       -2.2975439795
 H         -1.0870834018       -4.2582415542       -2.4834442000
 H         -2.0711346108       -2.7833602447       -2.1190590405
 H          0.3309615880       -3.8296321377       -0.4848119228
