  62
        -98.94576594
 C         -1.9992694084       -1.5139378287       -0.0616992914
 C         -1.7033166064       -0.2801148327       -0.6910215207
 C         -2.8175399342        0.6736392647       -0.7636995861
 C         -4.0334206442        0.3206619899       -0.3086638811
 C         -5.2740679150        1.1713210742       -0.3494664306
 C         -5.4027964292        2.1440994185        0.8307093138
 C         -4.4387219868        3.3306752591        0.8019248631
 H         -4.5113556372        3.8323085084       -0.1634824065
 H         -4.7778519851        4.0371856811        1.5621907836
 C         -2.9755834036        2.9625245940        1.0859148838
 H         -2.5556846435        3.6692037457        1.8051504677
 H         -2.9322257125        1.9740519190        1.5489948074
 C         -2.0665342262        2.9735520551       -0.1432391800
 H         -1.9926876748        3.9920874980       -0.5304066552
 H         -1.0695278299        2.6514819162        0.1674233913
 C         -2.5254217802        2.0498895980       -1.2792793671
 H         -1.7112968224        1.9648032188       -2.0027071685
 H         -3.3997137973        2.4673445937       -1.7780515489
 H         -6.4242590614        2.5316465760        0.8239170295
 H         -5.2663209213        1.5858426008        1.7599346918
 H         -5.3064916292        1.7278580551       -1.2864455613
 H         -6.1231634652        0.4848158177       -0.3231665296
 O         -4.2868642374       -0.8981078851        0.2405807836
 C         -3.2719494835       -1.8260228738        0.4137977588
 O         -3.6244022757       -2.8750855524        0.9911389444
 O         -0.5758729507        0.0103094456       -1.1654813054
 C         -0.8981787854       -2.5437283790        0.1199653620
 C          0.2766945856       -1.8877986834        0.8025170916
 C          0.0624212129       -1.2246885403        2.0083230892
 C          1.0932755750       -0.5627848289        2.6462058891
 C          2.3629900162       -0.5446276089        2.0951800345
 C          2.5887393786       -1.2094468015        0.8985973688
 C          1.5528702068       -1.8844160529        0.2647895138
 H          1.7482944470       -2.3923550221       -0.6664364788
 N          3.8745831816       -1.1912953396        0.3266060534
 S          4.6216166335        0.2972463804        0.1483625265
 O          5.6266852594        0.0899566950       -0.8706684814
 O          5.1074735660        0.7444679349        1.4300354745
 C          3.3543387940        1.4007418899       -0.4467979267
 C          2.8978992855        1.2277997008       -1.7379528943
 C          1.8973961445        2.0581817826       -2.2127187355
 C          1.3706980934        3.0409359992       -1.3904032177
 C          1.8362381547        3.1992771063       -0.0948110140
 C          2.8368752379        2.3706732491        0.3862482045
 H          3.2283640048        2.4629747008        1.3862175225
 H          1.4200121689        3.9632060858        0.5427191090
 H          0.5894291849        3.6853425970       -1.7615257106
 H          1.5260769854        1.9318174206       -3.2167565470
 H          3.3373709249        0.4596989057       -2.3541330709
 H          3.9371784225       -1.7158010270       -0.5342603920
 H          3.1778602986       -0.0244507451        2.5716922298
 H          0.9079776110       -0.0503089607        3.5782338929
 H         -0.9330590835       -1.2258398258        2.4323903116
 H         -1.3036554382       -3.3165356710        0.7884366413
 C         -0.5606280309       -3.1803193281       -1.2121092208
 C          0.0260607258       -4.5584517347       -1.2633369784
 C         -1.3907952687       -4.3298396599       -1.6949150064
 H         -1.6268504010       -4.3899815292       -2.7468285595
 H         -2.1877413834       -4.6702610955       -1.0499112940
 H          0.7610949917       -4.7812200459       -2.0223335709
 H          0.1945264125       -5.0653250359       -0.3252077967
 H         -0.2373826121       -2.4556445580       -1.9510003150
