  62
        -98.94431518
 C          2.3502019872        1.1491639030        0.2229616061
 C          2.3287437498       -0.1246855209       -0.3953886310
 C          3.2770868744       -1.1132636060        0.1404413740
 C          4.0748728172       -0.7770157438        1.1700207736
 C          5.1201981933       -1.6677244156        1.7748064983
 C          6.4800111442       -1.4754869620        1.0886456401
 C          6.4155154150       -1.5311379069       -0.4375929068
 H          5.8402438315       -0.6768159597       -0.8014303821
 H          7.4352319536       -1.4147823843       -0.8106926832
 C          5.8099243137       -2.8245347917       -1.0004517310
 H          5.8213285831       -3.6027440006       -0.2365187934
 H          6.4325347650       -3.1726947708       -1.8272692875
 C          4.3888667810       -2.6736774355       -1.5466927801
 H          4.3518516675       -1.8341899834       -2.2455380503
 H          4.1419850654       -3.5782529106       -2.1090242114
 C          3.2885715045       -2.4746670556       -0.4963529746
 H          2.3224197972       -2.5784815784       -0.9998237872
 H          3.3602266999       -3.2548079739        0.2644995510
 H          6.8791940794       -0.5010923068        1.3791156591
 H          7.1621068591       -2.2451948653        1.4540484176
 H          4.8002489639       -2.7043260300        1.6881941411
 H          5.2171847775       -1.4142214946        2.8317630582
 O          4.0497311746        0.4477703059        1.7538179599
 C          3.1907901273        1.4340433461        1.3023069483
 O          3.2683768170        2.5079891348        1.9311594427
 O          1.5679059698       -0.4329441541       -1.3511255750
 C          1.4077529403        2.2603467222       -0.2158922447
 C          0.0074914892        1.8537276178        0.1736589284
 C         -0.4180555949        2.0580337154        1.4834734611
 C         -1.6645817971        1.6263396630        1.8953749066
 C         -2.5079228400        0.9705120844        1.0146750812
 C         -2.0852030748        0.7470213133       -0.2879619361
 C         -0.8432029736        1.2057640083       -0.7075226848
 H         -0.5234568998        1.0139461439       -1.7192943610
 N         -2.9265709702        0.0645102500       -1.1844716733
 S         -3.6124263022       -1.3791097531       -0.6679160615
 O         -2.8003900501       -2.0365773884        0.3299130612
 O         -3.8791531015       -2.1267623705       -1.8777575435
 C         -5.1647853462       -0.8718940111        0.0448279763
 C         -6.0108443918       -0.0938072454       -0.7210996177
 C         -7.2266437700        0.2995954714       -0.1852670698
 C         -7.5758007413       -0.0917317735        1.0987875572
 C         -6.7172259474       -0.8759587925        1.8536927157
 C         -5.4989327489       -1.2720533328        1.3237140926
 H         -4.7966727293       -1.8766193388        1.8756257791
 H         -6.9899537995       -1.1797735363        2.8516379723
 H         -8.5224286307        0.2162189102        1.5139491989
 H         -7.8970452900        0.9093225033       -0.7693027300
 H         -5.7033013437        0.1860722544       -1.7146999425
 H         -2.5169270315       -0.0522790479       -2.1007336172
 H         -3.4753120145        0.6175832773        1.3327875114
 H         -1.9824245300        1.7958606959        2.9129694849
 H          0.2518637516        2.5460712125        2.1780398852
 H          1.6843766892        3.1405597370        0.3791773262
 C          1.5670667465        2.5962962428       -1.6837291675
 C          0.9801428352        3.8707186022       -2.2096036637
 C          2.4661043790        3.7266419551       -2.0811779873
 H          3.0551452477        3.6237562910       -2.9802896257
 H          2.9669307405        4.2678896177       -1.2917245331
 H          0.5471351171        3.8707451893       -3.1982012427
 H          0.4704925259        4.5103356299       -1.5051112900
 H          1.5553368171        1.7270965385       -2.3293067096
