  62
        -98.94478425
 C         -1.9380828900       -0.5351253268       -0.5860361384
 C         -3.0050396968       -1.3127691133       -0.0748442301
 C         -4.3481721602       -0.7368869625       -0.2195564975
 C         -4.4889278083        0.4581298712       -0.8220264536
 C         -5.7917334206        1.1839962629       -0.9904823047
 C         -6.0606735695        2.1251732113        0.1920453821
 C         -5.8833734389        1.4648401576        1.5592834101
 H         -6.1291270271        2.2131025059        2.3159301417
 H         -4.8309850663        1.2049804267        1.6946709014
 C         -6.7467634262        0.2143397880        1.7769137352
 H         -7.5608931991        0.1956314562        1.0515477225
 H         -7.1985242225        0.2692570557        2.7696122591
 C         -5.9780754577       -1.1065929010        1.7097964914
 H         -6.6293134789       -1.8983719904        2.0894069874
 H         -5.1066167901       -1.0566720344        2.3673575496
 C         -5.5053592644       -1.5337824910        0.3144108810
 H         -6.3453664426       -1.5074373812       -0.3825959465
 H         -5.1501809920       -2.5659583997        0.3857874529
 H         -7.0774877838        2.5115594879        0.1011600676
 H         -5.3692569935        2.9685637991        0.1268832819
 H         -5.7404248606        1.7730464866       -1.9077413208
 H         -6.5972975625        0.4579075671       -1.0812993990
 O         -3.4418433586        1.1708717374       -1.3102961239
 C         -2.1403095360        0.7016421079       -1.1983299157
 O         -1.2793118381        1.4634188814       -1.6773272392
 H          1.7708570448        0.3439004331       -1.1531228555
 C          1.4379291615        0.5191797847       -0.1446755349
 C          0.3091302973       -0.1124923201        0.3508164783
 C         -0.0943426230        0.1668783432        1.6552947654
 C          0.6045380060        1.0665792585        2.4346429449
 C          1.7284728800        1.7009178085        1.9335167088
 C          2.1423036587        1.4280350359        0.6358780609
 N          3.2645351131        2.0785517569        0.1000381617
 S          4.4098331157        1.2484788973       -0.7870627529
 O          5.5345659605        2.1548607417       -0.8584157614
 O          3.8611082743        0.8112613626       -2.0444732444
 C          4.8286198385       -0.1530116510        0.2329899364
 C          4.2016365644       -1.3642115979        0.0234221149
 C          4.4937886558       -2.4230099138        0.8690864912
 C          5.4002116255       -2.2529586385        1.9039479498
 C          6.0238292570       -1.0297651374        2.0995779968
 C          5.7338158474        0.0330971009        1.2600476803
 H          6.2044925898        0.9966976156        1.3695914256
 H          6.7315818491       -0.9020105668        2.9027141749
 H          5.6235496540       -3.0798211554        2.5595072473
 H          4.0113325801       -3.3752909317        0.7165097952
 H          3.5054853182       -1.4598895975       -0.7931288476
 H          3.7052835858        2.7350045494        0.7274560341
 H          2.2719423288        2.4122433087        2.5366985783
 H          0.2751894375        1.2770711828        3.4409610024
 H         -0.9749792626       -0.3267389643        2.0433357147
 C         -0.5217698523       -1.0714543350       -0.4641017300
 H         -0.6169736464       -2.0107913607        0.1001671043
 C          0.0501650096       -1.3826036769       -1.8299899649
 C          1.1035306870       -2.4378011748       -1.9792625028
 C         -0.2872804045       -2.6912412020       -2.4768667024
 H         -0.4617835088       -2.7092163202       -3.5422225562
 H         -0.9135020267       -3.3729140945       -1.9199727743
 H          1.4168538208       -2.9571374334       -1.0860035702
 H          1.8889537268       -2.2816069700       -2.7042654021
 H          0.1047738099       -0.5119976574       -2.4743061782
 O         -2.8405340435       -2.4333029265        0.4781074027
