  62
        -98.93373236
 C         -2.2887733935       -0.3314202157        0.1775070271
 C         -3.5355035682       -0.7880654314        0.6657368938
 C         -4.6649144640        0.1497076419        0.5561259017
 C         -4.4579071738        1.3707856826        0.0338691353
 C         -5.4443022565        2.5003664658       -0.1284399755
 C         -6.8448200826        2.1489444933       -0.6494767695
 C         -6.8950984835        0.9724904725       -1.6350675175
 H         -7.4550364537        1.2762407695       -2.5215434518
 H         -5.8862260880        0.7130998963       -1.9608010184
 C         -7.5777257173       -0.2666640257       -1.0507889340
 H         -8.4685356615        0.0499062797       -0.5039116534
 H         -7.9088919384       -0.9054825004       -1.8730511407
 C         -6.7072715384       -1.1254194741       -0.1340600707
 H         -7.3411523910       -1.9017570636        0.3010893018
 H         -5.9379214370       -1.6329218499       -0.7224409702
 C         -5.9999399662       -0.3719364053        1.0043547022
 H         -6.6286801482        0.4200788715        1.4035770808
 H         -5.7912108257       -1.0888499266        1.8029903200
 H         -7.5033393420        1.9348815176        0.1911156639
 H         -7.2348377630        3.0458891924       -1.1334641816
 H         -5.5381797809        3.0099173926        0.8348779529
 H         -4.9622655901        3.1993139012       -0.8160332497
 O         -3.2341629228        1.7746334249       -0.4117886247
 C         -2.1264970865        0.9428669506       -0.3632682089
 O         -1.0860994588        1.4505784441       -0.8228534628
 O         -3.6967736932       -1.9255048007        1.1838613540
 C         -1.0880891062       -1.2576693434        0.2512894438
 C          0.0035922661       -0.6091543111        1.0649712293
 C         -0.2632264877       -0.2790171753        2.3920257750
 C          0.6975805295        0.3297460204        3.1748410794
 C          1.9464309017        0.6190850874        2.6529502579
 C          2.2200403714        0.3020047435        1.3278793651
 C          1.2539480614       -0.3171105791        0.5459077616
 H          1.4942845918       -0.5535919407       -0.4765244754
 N          3.4635231683        0.6277122533        0.7635219755
 S          4.1162996105       -0.3473479078       -0.4459155956
 O          3.4877428055       -0.0376728597       -1.7050069147
 O          4.0819996171       -1.7348871833       -0.0387999826
 C          5.7952455373        0.2542559741       -0.4539437087
 C          6.7869716747       -0.4675629745        0.1825176228
 C          8.0807259885        0.0304032424        0.1862947324
 C          8.3583851175        1.2360502735       -0.4398571533
 C          7.3523811175        1.9491237574       -1.0753775238
 C          6.0573739358        1.4562773823       -1.0843105560
 H          5.2451112350        1.9696457916       -1.5723768660
 H          7.5721255597        2.8849324568       -1.5635214271
 H          9.3656402711        1.6216492375       -0.4354885794
 H          8.8657012286       -0.5228648221        0.6761067698
 H          6.5254778542       -1.4034035891        0.6495426471
 H          4.1572576862        0.8782899201        1.4545976944
 H          2.6977954473        1.0973903086        3.2627173439
 H          0.4763497383        0.5778239963        4.2021302474
 H         -1.2401276443       -0.5055839862        2.7975833705
 H         -1.4382235498       -2.1478351720        0.7949207420
 C         -0.6479251886       -1.6787424033       -1.1342315621
 C          0.1509358904       -2.9338576694       -1.3132729401
 C         -1.2751670065       -2.8811129129       -1.7705741921
 H         -1.4769012548       -2.8568604724       -2.8309829273
 H         -2.0161459887       -3.4170994263       -1.1955383283
 H          0.9366336787       -2.9417135809       -2.0541093583
 H          0.3827527028       -3.5069555969       -0.4280564544
 H         -0.4190013479       -0.8358012139       -1.7778839881
