  62
        -98.93515846
 C         -1.9374029001       -1.2117264191        0.0734302310
 C         -2.7385642498       -0.6480326179        1.0951349906
 C         -3.9247095295        0.1248458822        0.6778280599
 C         -4.1561319096        0.2884746711       -0.6377464402
 C         -5.2648877993        1.0626596309       -1.2993892309
 C         -5.0369222087        2.5822313408       -1.2489834323
 C         -4.5505053984        3.1157865019        0.0961184472
 H         -3.6188077586        2.6141101118        0.3648352876
 H         -4.3204175780        4.1770274717       -0.0314052939
 C         -5.5467492584        2.9887266634        1.2462867874
 H         -5.1037233281        3.4828535540        2.1149017069
 H         -6.4606713482        3.5285480535        0.9886120069
 C         -5.9232926689        1.5622369939        1.6519688287
 H         -6.6343813791        1.1308845835        0.9525809692
 H         -6.4356430888        1.6236627350        2.6165787387
 C         -4.7391349692        0.6207953536        1.8485225995
 H         -5.0934460795       -0.2800391958        2.3644607104
 H         -4.0241754990        1.0835559140        2.5384612090
 H         -5.9674792786        3.0805005909       -1.5258243227
 H         -4.2829461587        2.8351134898       -1.9986730226
 H         -5.2850335995        0.7496607499       -2.3456326106
 H         -6.2205692594        0.7986492516       -0.8563328705
 O         -3.3268329098       -0.2262278302       -1.5888120898
 C         -2.2050947101       -0.9768769003       -1.2757414192
 O         -1.5570165903       -1.3550539015       -2.2683269689
 O         -2.4705207197       -0.7729823568        2.3211950807
 C         -0.7169144804       -2.0105256292        0.4941574017
 C          0.4976314598       -1.5322178304       -0.2611581989
 C          1.2818994894       -2.3491013014       -1.0634578482
 C          2.3746152595       -1.8290160825       -1.7362004187
 C          2.7117186001       -0.4937304725       -1.6212102100
 C          1.9393507904        0.3309489286       -0.8120909007
 C          0.8516628103       -0.1938851904       -0.1322785101
 H          0.2465160206        0.4514593104        0.4932398293
 N          2.2734292310        1.6889884386       -0.6831076720
 S          3.8824030711        2.1037969481       -0.4973557025
 O          3.8649588117        3.3686923188        0.2036994863
 O          4.5383190410        2.1054374267       -1.7811287926
 C          4.5807840207        0.8278757488        0.5358426486
 C          4.0559888108        0.6580517302        1.8018481388
 C          4.5644937804       -0.3460192392        2.6092896997
 C          5.5842330401       -1.1596550101        2.1390924904
 C          6.1038028301       -0.9733195414        0.8677306402
 C          5.5976256904        0.0286530580        0.0550714893
 H          5.9710655204        0.2070260669       -0.9401057709
 H          6.8978370098       -1.6061285321        0.5055442507
 H          5.9757469698       -1.9424402596        2.7693218611
 H          4.1617174005       -0.4915703181        3.5988357499
 H          3.2678552810        1.3116895708        2.1402620083
 H          1.6816390412        2.2037300394       -0.0488104825
 H          3.5450652102       -0.0714318933       -2.1587520105
 H          2.9677848693       -2.4725056533       -2.3677309382
 H          1.0225925990       -3.3873974314       -1.1862407072
 H         -0.5776261402       -1.7470321882        1.5563697814
 C         -0.9056570809       -3.5190969592        0.4494213831
 C         -2.2647423312       -4.1319368885        0.6032505838
 C         -1.5484220313       -4.2181727000       -0.7094397662
 H         -1.1520638217       -5.1763387104       -1.0126143353
 H         -1.8966891011       -3.6110879806       -1.5299236367
 H         -2.3602256414       -5.0267972979        1.1998141146
 H         -3.1101711709       -3.4634773781        0.6805630332
 H         -0.0888866611       -4.0414403290        0.9379998635
