  62
        -98.94471700
 C          2.1355389204        1.0424272273       -0.4195464546
 C          3.1860137569        1.2308072046        0.5137296900
 C          4.4335876420        0.5140061754        0.2315139774
 C          4.5248244961       -0.2589748339       -0.8658564753
 C          5.7337027588       -1.0439152314       -1.2974204568
 C          5.8596771143       -2.4152780275       -0.6195649726
 C          6.2695022686       -2.3788285822        0.8533423828
 H          6.5304156799       -3.4002494051        1.1375792256
 H          7.1678962811       -1.7707971764        0.9644184258
 C          5.1777135075       -1.8666574744        1.8032861267
 H          4.2085648357       -1.9053776695        1.3000337650
 H          5.1122654952       -2.5263931833        2.6714696860
 C          5.4076629314       -0.4492573487        2.3279521423
 H          6.3070972659       -0.4293238124        2.9473050897
 H          4.5579780377       -0.1760451890        2.9586312394
 C          5.5454617510        0.6152286659        1.2316326392
 H          5.4831131225        1.6003403217        1.7003263125
 H          6.5121391033        0.5233949285        0.7371554872
 H          4.9083123541       -2.9431188502       -0.7202177473
 H          6.6138364972       -2.9825604261       -1.1700189918
 H          5.6350860607       -1.2002352026       -2.3738414758
 H          6.6359775250       -0.4604578725       -1.1121878173
 O          3.4988679771       -0.4042127749       -1.7447894654
 C          2.2753361935        0.2185862447       -1.5364387069
 O          1.4259294053       -0.0333917279       -2.4125206434
 O          3.0853246391        1.9662281724        1.5312016932
 C          0.8087777614        1.7333824684       -0.1489961027
 C         -0.2009217472        0.6769025290        0.2248013343
 C         -0.1929833440        0.1636079701        1.5193305433
 C         -1.0622821825       -0.8466149095        1.8850736186
 C         -1.9563949499       -1.3696810602        0.9670748106
 C         -1.9728928616       -0.8633057351       -0.3257108790
 C         -1.1095442120        0.1635225139       -0.6874163862
 H         -1.1223957080        0.5341587381       -1.6998949679
 N         -2.8731792154       -1.3920515751       -1.2633804160
 S         -4.4479095794       -1.6836807159       -0.7893857542
 O         -4.5197770004       -2.9316817299       -0.0702076696
 O         -5.2298764811       -1.6099588005       -2.0035947144
 C         -4.8619170244       -0.3345071757        0.3026942141
 C         -5.1808772846       -0.5854882698        1.6214474774
 C         -5.4680239666        0.4824980389        2.4566381279
 C         -5.4280616942        1.7763442437        1.9613320328
 C         -5.1095040429        2.0121094107        0.6324692487
 C         -4.8222804726        0.9483713601       -0.2068830658
 H         -4.5767367965        1.0966852076       -1.2461392876
 H         -5.0806573886        3.0193937711        0.2490617596
 H         -5.6474681752        2.6070720366        2.6133320578
 H         -5.7180036744        0.3019186345        3.4897001146
 H         -5.1993361411       -1.6067590596        1.9656109277
 H         -2.8207646112       -0.9651508057       -2.1757148700
 H         -2.6267722322       -2.1727717568        1.2268766072
 H         -1.0421045659       -1.2358996874        2.8916037905
 H          0.5167085701        0.5603969864        2.2317800462
 H          0.9869796570        2.3613897201        0.7343224866
 C          0.3790685369        2.6204481464       -1.2978400849
 C         -0.6985919497        3.6376688034       -1.0738190678
 C          0.7210746427        4.0785820885       -1.2624233286
 H          0.9934621454        4.5650064708       -2.1871918182
 H          1.2625974417        4.4442262032       -0.4023980340
 H         -1.4041570006        3.8263675338       -1.8684593635
 H         -1.1205868080        3.7022188907       -0.0825146359
 H          0.4232006648        2.1283335011       -2.2617992005
