  62
        -98.93385146
 C         -2.3282300356       -0.6518140698        0.1029778199
 C         -2.9214581119        0.3020531844        0.9700163362
 C         -3.9083781638        1.2086086865        0.3718730191
 C         -4.1607815774        1.1221935690       -0.9467118641
 C         -5.1777388803        1.9449439275       -1.6821106158
 C         -6.5423651534        1.2424840664       -1.7134467035
 C         -7.0100978957        0.7396522087       -0.3476654014
 H         -6.3400424083       -0.0550657370       -0.0117310123
 H         -7.9961057746        0.2909008880       -0.4862599937
 C         -7.0901991554        1.8248842881        0.7351173964
 H         -8.0301581180        1.7088349549        1.2787739153
 H         -7.1046720588        2.8116285955        0.2709037901
 C         -5.9668087286        1.7699217400        1.7721655693
 H         -5.8876397132        0.7562502403        2.1733341692
 H         -6.2368101186        2.4290789248        2.6016340228
 C         -4.5805783157        2.2019899258        1.2775113492
 H         -3.9305743312        2.2983667777        2.1521939218
 H         -4.6508149304        3.1783016641        0.7934854623
 H         -6.4753590671        0.3862723340       -2.3884803808
 H         -7.2792823442        1.9381810542       -2.1188053827
 H         -5.2685621155        2.9166101232       -1.2004347353
 H         -4.8288045222        2.0876693501       -2.7061214179
 O         -3.5388636322        0.2322880542       -1.7568382700
 C         -2.6173758299       -0.6848285098       -1.2629836410
 O         -2.1517926673       -1.4357925106       -2.1355558859
 H          0.4985019099        0.0089324268        1.6817903393
 C          0.8677682627       -0.4871418800        0.7926596549
 C          0.0456174565       -1.4016492734        0.1402567224
 C          0.5372765189       -2.0108497890       -1.0085972249
 C          1.8093074631       -1.7184691305       -1.4708450666
 C          2.6194431806       -0.8105152396       -0.8147116280
 C          2.1381949131       -0.1831803780        0.3263965707
 N          2.9385796081        0.7624132311        0.9908664643
 S          4.5166786244        0.3401655902        1.3776232640
 O          4.6475461536       -1.0838980892        1.5816437822
 O          4.8693717598        1.1852695576        2.4975393767
 C          5.4606349615        0.8428702807       -0.0456942922
 C          5.3599931598        2.1548293022       -0.4653595506
 C          6.0998238944        2.5644705530       -1.5630806070
 C          6.9256600888        1.6617092070       -2.2165060668
 C          7.0184100998        0.3489061553       -1.7804942916
 C          6.2799651522       -0.0676516083       -0.6837296983
 H          6.3162143984       -1.0794301578       -0.3123491851
 H          7.6613619959       -0.3511126295       -2.2894400369
 H          7.5005719572        1.9835837462       -3.0704537623
 H          6.0302102250        3.5845444138       -1.9051944808
 H          4.7098332529        2.8256292673        0.0712689275
 H          2.4823034131        1.1984286785        1.7792420909
 H          3.6089557867       -0.5834013094       -1.1763946203
 H          2.1713362587       -2.2048601032       -2.3639716494
 H         -0.0803977204       -2.6899851916       -1.5680091429
 C         -1.3271885291       -1.6160273661        0.7282575155
 H         -1.2643968852       -1.2706951049        1.7724234957
 C         -1.8733263371       -3.0356603494        0.8263944922
 C         -2.0932129728       -3.9857185656       -0.3109945382
 C         -1.0210295922       -4.2624447065        0.6986751058
 H         -1.1759862356       -5.0672426106        1.4019423570
 H          0.0078846883       -4.1305933187        0.4021765316
 H         -1.8290457627       -3.6716745767       -1.3063140568
 H         -2.9889947471       -4.5903485466       -0.2807813363
 H         -2.6390604442       -3.0734643368        1.5981839533
 O         -2.6372807161        0.3905559791        2.1966746283
