  62
        -98.94231144
 C          1.9739964095        1.3399628576       -0.1169851117
 C          3.0782869690        1.2144785704        0.7668352945
 C          4.2661724895        0.5374345240        0.2374174015
 C          4.2700687119        0.0994570433       -1.0341819097
 C          5.4126948232       -0.5847974641       -1.7339691706
 C          5.4887692665       -2.0954456549       -1.4734824214
 C          5.9592954783       -2.4910061272       -0.0732325734
 H          6.1750570746       -3.5610407358       -0.0984030541
 H          6.8932686913       -1.9760878810        0.1539112493
 C          4.9362372820       -2.2206452936        1.0390921361
 H          4.8674790701       -3.0945958363        1.6908562485
 H          3.9471414209       -2.0745264590        0.5982028678
 C          5.2649174709       -1.0194287430        1.9259733066
 H          4.4565969347       -0.8995136507        2.6519060617
 H          6.1873363033       -1.2133584469        2.4778261455
 C          5.4193778750        0.3042665751        1.1656930585
 H          5.4300570037        1.1187984162        1.8939992871
 H          6.3597181476        0.3143035399        0.6148371601
 H          4.5061961361       -2.5334776062       -1.6645118851
 H          6.1868889932       -2.5167577323       -2.2005757376
 H          6.3535170917       -0.1165746036       -1.4432664736
 H          5.2615220152       -0.4272640265       -2.8041359321
 O          3.2020993104        0.2534788278       -1.8579413118
 C          2.0218014710        0.8468920573       -1.4214994921
 O          1.1283629160        0.8614017459       -2.2894402986
 O          3.0717769005        1.6606570186        1.9449362569
 C          0.7434904827        2.0392409315        0.4341582119
 C         -0.2625136415        1.0542419144        0.9725990394
 C         -0.8231623781        1.2217241297        2.2333537800
 C         -1.7572375630        0.3206684481        2.7154759472
 C         -2.1529594870       -0.7615730819        1.9506166922
 C         -1.5998233222       -0.9364717837        0.6881380219
 C         -0.6645169940       -0.0316949755        0.2067962922
 H         -0.2441677362       -0.1695643742       -0.7785439583
 N         -2.0022077799       -2.0264375262       -0.1046616793
 S         -3.6495620247       -2.2881092010       -0.2615693680
 O         -4.1350225822       -2.9895320923        0.9009801350
 O         -3.8112551126       -2.9713417622       -1.5250972041
 C         -4.3688721691       -0.6573276886       -0.3280073242
 C         -5.1773555632       -0.2157161294        0.6995026287
 C         -5.6811601793        1.0741817316        0.6480864425
 C         -5.3671286494        1.8962164347       -0.4228493605
 C         -4.5583878638        1.4358613435       -1.4506926048
 C         -4.0507168461        0.1475823807       -1.4041026164
 H         -3.4187349075       -0.2405439818       -2.1877265584
 H         -4.3130541720        2.0766269739       -2.2822795308
 H         -5.7530352979        2.9025224261       -0.4593996945
 H         -6.3123645110        1.4342417209        1.4443226785
 H         -5.3962895829       -0.8879767685        1.5127878173
 H         -1.5458015870       -2.0558901726       -1.0048803851
 H         -2.8724900834       -1.4782161396        2.3117859832
 H         -2.1803436902        0.4605165187        3.6982335572
 H         -0.5113649906        2.0574926549        2.8422143976
 H          1.1198904324        2.6230905838        1.2889266189
 C          0.1292627877        3.0271368012       -0.5492789025
 C         -1.1627108352        2.7937664287       -1.2666681891
 C         -1.0929342305        3.8101910714       -0.1695395604
 H         -1.1352450757        4.8575698885       -0.4263744634
 H         -1.5692049583        3.5619905564        0.7667852540
 H         -1.2304235345        3.1298901469       -2.2899659947
 H         -1.6949558478        1.8755279335       -1.0754612368
 H          0.8943381016        3.5596309274       -1.1060961486
