  62
        -98.93964428
 C          2.2758533095        0.9100933874        0.6465115442
 C          3.4154975445        0.8710089164       -0.1941387322
 C          4.3950233437       -0.1873407394        0.0986925041
 C          4.1684318048       -1.0433070888        1.1104100948
 C          5.0517196443       -2.2016041962        1.4716962513
 C          4.6244469891       -3.4790450265        0.7353108674
 C          4.4223513946       -3.2883520396       -0.7680449532
 H          3.5706415876       -2.6234042622       -0.9309314859
 H          4.1528926596       -4.2612276499       -1.1850192331
 C          5.6477144567       -2.7352859193       -1.5091137703
 H          5.7893641407       -3.3092199565       -2.4272369009
 H          6.5416746580       -2.8725292879       -0.8997842980
 C          5.5323024954       -1.2651430628       -1.9155790316
 H          4.5898727193       -1.1043969265       -2.4450307211
 H          6.3431474602       -1.0407773517       -2.6136038210
 C          5.6202018385       -0.2488427325       -0.7702861294
 H          5.7211253309        0.7449760799       -1.2156216080
 H          6.5086718870       -0.4481196872       -0.1681323556
 H          3.6821481339       -3.8273143155        1.1651042443
 H          5.3812951536       -4.2463103779        0.9084550623
 H          4.9744095667       -2.3697066978        2.5471863885
 H          6.0827204188       -1.9554056858        1.2251491448
 O          3.0670521219       -0.9728470433        1.9021267770
 C          2.1026536049       -0.0034765124        1.6912914573
 O          1.1526199276       -0.0487534027        2.5005776855
 O          3.6310811790        1.6683176926       -1.1444607216
 C          1.1604427796        1.9323372041        0.4884661933
 C          0.2147744852        1.5334339097       -0.6199044346
 C          0.6114207931        1.5308655915       -1.9533460149
 C         -0.2775783725        1.1582345360       -2.9445500714
 C         -1.5717667785        0.7840650143       -2.6293848994
 C         -1.9800637128        0.7885681037       -1.3004448558
 C         -1.0854028055        1.1621404348       -0.3072659027
 H         -1.4059109932        1.1419790284        0.7239344209
 N         -3.3050338817        0.4588715433       -0.9640990590
 S         -3.6144513380       -0.3559170856        0.4817737336
 O         -3.5479134288        0.5868455069        1.5696320661
 O         -2.7741206862       -1.5286987368        0.5828198757
 C         -5.3128497598       -0.8281287271        0.2104417761
 C         -6.2922604235        0.1372276515        0.3512921717
 C         -7.6133064674       -0.2094666015        0.1177849272
 C         -7.9320368021       -1.5084619630       -0.2500880472
 C         -6.9389681739       -2.4667384221       -0.3851948977
 C         -5.6150438705       -2.1260432519       -0.1547012963
 H         -4.8103584080       -2.8386621074       -0.2399516493
 H         -7.1897775683       -3.4764725786       -0.6677434034
 H         -8.9612174495       -1.7762950968       -0.4297891456
 H         -8.3882537117        0.5322878032        0.2244846093
 H         -5.9975004064        1.1301282479        0.6481590488
 H         -3.8018516053        0.0286877168       -1.7330488669
 H         -2.2632392161        0.4931521744       -3.4057414072
 H          0.0424867082        1.1546291243       -3.9756616770
 H          1.6255663460        1.8037943621       -2.2001671198
 H          0.5946055379        1.8965144220        1.4299836403
 C          1.6662966850        3.3484726901        0.2904672873
 C          0.7423475869        4.4897151425        0.5859284801
 C          1.9061084213        4.2133106420        1.4891161698
 H          2.7454914011        4.8921184828        1.4745610537
 H          1.7070833339        3.7855089583        2.4614963416
 H          0.7802726487        5.3611709227       -0.0492760606
 H         -0.2470036741        4.2489981416        0.9464136986
 H          2.3490139585        3.4518509510       -0.5418791427
