  62
        -98.93132686
 C          2.3644682978        0.6784897285        0.0042494569
 C          3.5313555581        0.7930812915        0.7917566749
 C          4.7586233601        0.1798857753        0.2511583058
 C          4.6976782558       -0.4719800027       -0.9241662023
 C          5.8031377982       -1.1714767998       -1.6743441961
 C          6.7518797541       -2.0509310364       -0.8452717326
 C          8.1592309138       -1.4670969114       -0.7083337929
 H          8.8579920299       -2.2829783101       -0.5103972273
 H          8.4437269278       -1.0192286439       -1.6627398285
 C          8.3290372162       -0.4341992819        0.4044240346
 H          8.2918826177       -0.9372513812        1.3731771059
 H          9.3262180538        0.0004811452        0.3024739091
 C          7.2991336499        0.6971531307        0.4091234664
 H          7.7352798983        1.5433116010        0.9443637061
 H          7.0967763210        1.0338837928       -0.6069382560
 C          5.9838849487        0.3283753519        1.1115758533
 H          5.7209010904        1.1087673437        1.8325888737
 H          6.1170394982       -0.5861982422        1.6968805249
 H          6.3211101431       -2.2378022972        0.1372249686
 H          6.8356508729       -3.0154693661       -1.3487464203
 H          5.2932231747       -1.7806404979       -2.4241252660
 H          6.3781726908       -0.4208617432       -2.2223474244
 O          3.5441132174       -0.5641603293       -1.6468913193
 C          2.3579102328        0.0029731626       -1.2149266634
 O          1.3957043439       -0.1607728937       -1.9881809458
 O          3.5509684145        1.3853688891        1.9055328687
 C          1.0715587171        1.2940260705        0.5061993631
 C          0.0174713126        0.2252746965        0.6615909096
 C          0.3325865315       -0.9254887634        1.3801735734
 C         -0.5977707556       -1.9321993890        1.5482515907
 C         -1.8656671999       -1.8156146830        1.0056221226
 C         -2.1960716678       -0.6674002053        0.3006427211
 C         -1.2599625410        0.3486189939        0.1402400804
 H         -1.5329622490        1.2344409512       -0.4117689668
 N         -3.4772026074       -0.5433332378       -0.2635326911
 S         -4.7941542325       -1.0654409521        0.6550449696
 O         -4.6677008590       -0.5938840211        2.0160434981
 O         -4.9303839433       -2.4916326614        0.4949113855
 C         -6.1343740635       -0.2321429747       -0.1723209743
 C         -6.5980910925        0.9681694665        0.3319312862
 C         -7.6230180877        1.6228174993       -0.3329220350
 C         -8.1610041394        1.0707393951       -1.4857403882
 C         -7.6845054135       -0.1346316206       -1.9797525486
 C         -6.6607042086       -0.7951482517       -1.3195061141
 H         -6.2640812310       -1.7368536801       -1.6614817260
 H         -8.1069849353       -0.5610756534       -2.8752499574
 H         -8.9586837294        1.5820542006       -2.0010561225
 H         -7.9975667989        2.5585798112        0.0497281313
 H         -6.1558078833        1.3554539543        1.2358438518
 H         -3.6379393427        0.3743490688       -0.6552702603
 H         -2.6015882065       -2.5943011991        1.1265515792
 H         -0.3355208363       -2.8195995252        2.1052440919
 H          1.3233661586       -1.0210003054        1.8039210741
 H          1.3048699624        1.6885985789        1.5064320209
 C          0.6559514197        2.4443217022       -0.3863285371
 C         -0.1600036177        3.5738153795        0.1663710789
 C          1.2839262042        3.7876938631       -0.1720737811
 H          1.5298204520        4.3855131049       -1.0367964037
 H          1.9933094284        3.8789203488        0.6373713426
 H         -0.9050014647        4.0313113519       -0.4672252923
 H         -0.4343917376        3.5278677663        1.2095157041
 H          0.4787358986        2.1328733484       -1.4097997970
