  62
        -98.93821705
 C         -0.5199483609       -2.0000448790       -0.3741900797
 C         -0.9732289408       -0.7126384089       -0.7456778194
 C         -2.3286221706       -0.3322983787       -0.2971920591
 C         -3.0348853406       -1.1814482987        0.4681550709
 C         -4.4149078605       -1.0086168886        1.0508852712
 C         -4.7118368601        0.3466726114        1.7117310714
 C         -5.7044428701        1.2023653016        0.9226410717
 H         -6.4869176703        0.5507122518        0.5281596318
 H         -6.1811112899        1.9058110016        1.6090478419
 C         -5.0962546202        2.0119532717       -0.2209261382
 H         -5.9194698303        2.4632147119       -0.7798297080
 H         -4.4988880600        2.8269381616        0.1940260818
 C         -4.2201515005        1.2170099817       -1.1914219985
 H         -4.1932305806        1.7614379119       -2.1375501185
 H         -4.6635112507        0.2436481518       -1.3969322586
 C         -2.7711741605        1.0441175814       -0.7127938088
 H         -2.0822604306        1.3229019014       -1.5162120589
 H         -2.5627096302        1.7317631113        0.1131210112
 H         -5.1426770800        0.1511012613        2.6952910015
 H         -3.7813725400        0.8906311212        1.8730466413
 H         -5.1522051706       -1.2101586383        0.2698964913
 H         -4.5131766904       -1.8097026287        1.7870628511
 O         -2.5543337307       -2.4098378688        0.8157165306
 C         -1.3065797409       -2.8429268290        0.4146539903
 O         -1.0128198410       -3.9893376091        0.8125515601
 H          1.4628339595        0.0043377007       -0.1229009698
 C          2.0574532995       -0.6928487995        0.4431053200
 C          1.8837163592       -2.0555485195        0.2505409898
 C          2.6602468792       -2.9393085897        0.9904460495
 C          3.5787796095       -2.4651006900        1.9105540694
 C          3.7240749197       -1.1061356300        2.1250487496
 C          2.9503145397       -0.2155815898        1.3895467799
 N          3.0632203900        1.1705876502        1.5699866001
 S          1.6956387401        2.1323677304        1.4537653105
 O          2.0433155904        3.3335527902        2.1897347006
 O          0.5133987501        1.4447456505        1.9231272406
 C          1.5537939699        2.5627438907       -0.2668137894
 C          2.6315044997        2.4239980406       -1.1165882997
 C          2.4900122995        2.8094320408       -2.4401699396
 C          1.2856360695        3.3293282511       -2.8867353293
 C          0.2158409797        3.4693178011       -2.0175876091
 C          0.3504714499        3.0840196709       -0.6943927891
 H         -0.4597964900        3.1625945809        0.0128081510
 H         -0.7239089703        3.8678989213       -2.3656975588
 H          1.1771369793        3.6215135813       -3.9195519992
 H          3.3192476893        2.6962315608       -3.1202635798
 H          3.5516745197        2.0050732104       -0.7438691699
 H          3.6652015702        1.4632209799        2.3256490000
 H          4.4238272399       -0.7362048303        2.8590489395
 H          4.1763754195       -3.1609955202        2.4797597992
 H          2.5260449490       -4.0025966697        0.8555309194
 C          0.8520241589       -2.5518008992       -0.7340459401
 H          0.7738762788       -3.6414526692       -0.6172272802
 C          1.2780905087       -2.2498920290       -2.1575895801
 C          2.3052310085       -3.1248090291       -2.8082972104
 C          0.8764823384       -3.1841414988       -3.2571909402
 H          0.6161301982       -2.7657586186       -4.2175912201
 H          0.2919156083       -4.0518414987       -2.9868920702
 H          3.0306282484       -2.6664253291       -3.4623476105
 H          2.6904740584       -3.9559391892       -2.2371709906
 H          1.2963005188       -1.1922685990       -2.3834864700
 O         -0.3030532508        0.1055608911       -1.4306450295
