  62
        -98.94286714
 C         -1.8144953946       -0.8639332779        0.2902671955
 C         -3.1646138682       -1.2211594362        0.5382662250
 C         -4.1084914233       -0.1089767896        0.6934666995
 C         -3.6570309801        1.1575494957        0.6571016180
 C         -4.4906739587        2.3993058311        0.8205190168
 C         -5.1752337509        2.8651193881       -0.4718974879
 C         -6.3478295238        2.0000806102       -0.9360468718
 H         -7.0499485032        1.8685514294       -0.1121583866
 H         -6.8659640499        2.5565971801       -1.7195744895
 C         -5.9421460316        0.6280781141       -1.4927648456
 H         -4.8765928344        0.6338037068       -1.7348606848
 H         -6.4790973024        0.4395454484       -2.4252034544
 C         -6.2320982394       -0.5463563839       -0.5577583587
 H         -7.3106784329       -0.6440467153       -0.4160173155
 H         -5.8718208984       -1.4616674191       -1.0349245627
 C         -5.5656404082       -0.4356557205        0.8199160282
 H         -6.0742640238        0.3145848496        1.4249130752
 H         -5.6471849141       -1.4041084041        1.3195858221
 H         -4.4259750689        2.9184013843       -1.2652405257
 H         -5.5463094647        3.8776269123       -0.2970773343
 H         -5.2425133057        2.2368079098        1.5933614881
 H         -3.8127163412        3.1876002262        1.1545493624
 O         -2.3434771220        1.4585342422        0.4855114450
 C         -1.3927713777        0.4656384159        0.2781666243
 O         -0.2396548514        0.9036748370        0.1142191586
 H          1.8106119882       -1.7544123530       -0.7794398069
 C          1.6942387557       -1.6746475687        0.2878333531
 C          0.4403441125       -1.7486670898        0.8729615643
 C          0.3410082788       -1.6182636537        2.2566286976
 C          1.4650899863       -1.4054243202        3.0292393581
 C          2.7151887338       -1.3240774529        2.4400880008
 C          2.8280191041       -1.4605462901        1.0622848883
 N          4.0922556475       -1.4339706731        0.4489583787
 S          4.4294441075       -0.5103199486       -0.9024297516
 O          3.5245389174       -0.8437502623       -1.9712027147
 O          5.8332681742       -0.7514486724       -1.1579920794
 C          4.2148577846        1.1839385507       -0.3860897524
 C          2.9428875490        1.6739332142       -0.1681909516
 C          2.8022381562        2.9805221526        0.2748633522
 C          3.9216012744        3.7690536304        0.4898814161
 C          5.1922257719        3.2594648408        0.2669611159
 C          5.3421916900        1.9540153789       -0.1706083458
 H          6.3089857016        1.5154356107       -0.3583177340
 H          6.0626857503        3.8733101145        0.4343511701
 H          3.8020507630        4.7848730181        0.8327716487
 H          1.8083013972        3.3613120720        0.4488625533
 H          2.0756535075        1.0545961609       -0.3333274643
 H          4.8613151560       -1.3652800675        1.1002902186
 H          3.5959053648       -1.1600774518        3.0424353269
 H          1.3701087593       -1.3002872389        4.0995590913
 H         -0.6361222825       -1.6798418853        2.7168872784
 C         -0.8186972103       -1.9885576841        0.0781140613
 H         -1.3172701812       -2.8778340456        0.5007625097
 C         -0.5479764488       -2.2999074612       -1.3865240419
 C         -1.5683989874       -2.0196027476       -2.4477445718
 C         -0.3007718818       -1.2231749530       -2.3984641459
 H          0.4542370124       -1.3913105728       -3.1529779635
 H         -0.3482466839       -0.1999645119       -2.0598756005
 H         -1.6952602369       -2.7418599176       -3.2401673885
 H         -2.4867171214       -1.5361148686       -2.1468470084
 H          0.0241630230       -3.2152809678       -1.5071914288
 O         -3.5593874070       -2.4135971641        0.6326110794
