  62
        -98.93514994
 C         -2.2389553417       -0.5464410079        0.1645045247
 C         -3.5203069658       -0.9692212302        0.5859042823
 C         -4.6092441588        0.0175710140        0.4821949408
 C         -4.3413216318        1.2465409084        0.0022702448
 C         -5.2290367742        2.4604409971       -0.1792603598
 C         -6.7488929835        2.3361754277       -0.1085681538
 C         -7.3795792636        1.5418731021       -1.2518143556
 H         -7.2756935780        2.1190128165       -2.1741017941
 H         -8.4465692673        1.4345105071       -1.0449987591
 C         -6.7807733493        0.1603963233       -1.5040159296
 H         -5.7372209694        0.2626712721       -1.8090552389
 H         -7.3181595726       -0.2885267844       -2.3437960383
 C         -6.8611745160       -0.8116406924       -0.3286654429
 H         -6.5487243589       -1.7939389835       -0.6929179888
 H         -7.8955760377       -0.8941156852        0.0103324691
 C         -5.9749916954       -0.4640265600        0.8800265653
 H         -5.8196151200       -1.3792432041        1.4586361093
 H         -6.4608811386        0.2567644207        1.5331103841
 H         -7.1454787703        3.3539918989       -0.1565741097
 H         -7.0491366584        1.9268050835        0.8513632026
 H         -4.9493377405        2.8895095036       -1.1467304217
 H         -4.9044103986        3.1802204990        0.5803839182
 O         -3.0817174142        1.6123632539       -0.3816256933
 C         -2.0077235276        0.7398859573       -0.3174241098
 O         -0.9291911244        1.2249708584       -0.7112375123
 O         -3.7463473458       -2.1217071984        1.0434400162
 C         -1.0781267157       -1.5212277670        0.2408093022
 C          0.0143648424       -0.9461358159        1.1070908706
 C         -0.3056368017       -0.5435176489        2.4018636013
 C          0.6539460122        0.0085488638        3.2266393610
 C          1.9513222895        0.1772852356        2.7749587087
 C          2.2850189146       -0.2319986647        1.4899825414
 C          1.3208899316       -0.8023299319        0.6689762454
 H          1.6030603161       -1.1050392802       -0.3243821205
 N          3.6124889858       -0.1135669149        1.0326005906
 S          3.9250679164        0.4631132822       -0.5243732442
 O          3.4247840459        1.8124252297       -0.6733179662
 O          3.4790583146       -0.5053773562       -1.4920807516
 C          5.7087231092        0.4778034346       -0.4771178349
 C          6.3823553900        1.6741662154       -0.3228932888
 C          7.7674463867        1.6617457449       -0.2659160047
 C          8.4511602277        0.4591689158       -0.3597652663
 C          7.7610437933       -0.7341081686       -0.5149715567
 C          6.3767380916       -0.7281781780       -0.5746827494
 H          5.7988253701       -1.6282777587       -0.7032834837
 H          8.2962829609       -1.6668769427       -0.5900501828
 H          9.5287449337        0.4520526315       -0.3146954877
 H          8.3062850345        2.5881570036       -0.1487730903
 H          5.8085733617        2.5850113039       -0.2612328515
 H          4.1867719538        0.4005315841        1.6891219152
 H          2.6996026501        0.6212928506        3.4143751187
 H          0.3899845583        0.3201385321        4.2262434696
 H         -1.3237997352       -0.6626086908        2.7474798477
 H         -1.4795831334       -2.4159723232        0.7398140225
 C         -0.6170306113       -1.9056436717       -1.1486256449
 C          0.0504755340       -3.2270433295       -1.3806704277
 C         -1.3416611047       -2.9921796825       -1.8827555710
 H         -1.4972838425       -2.8805764597       -2.9453731300
 H         -2.1598404552       -3.4754305078       -1.3688902138
 H          0.8571821803       -3.2736836665       -2.0966661761
 H          0.1786175171       -3.8763882001       -0.5278951009
 H         -0.2749752951       -1.0534953490       -1.7272321368
