  62
        -98.94014918
 C          2.4329285635        0.9751012344        0.0339272360
 C          3.6858873151        0.9000224246        0.6966244312
 C          4.7045411626        0.0542037424        0.0660614622
 C          4.4134786649       -0.6020677677       -1.0713482513
 C          5.3500019672       -1.4864245787       -1.8489680115
 C          5.4247250766       -2.9277343330       -1.3267237139
 C          6.1750876762       -3.1029712635       -0.0058217718
 H          6.3402848156       -4.1737741419        0.1289237681
 H          7.1546878506       -2.6296561666       -0.0799039963
 C          5.4305667114       -2.5606600756        1.2222922611
 H          5.4736249014       -3.2964312502        2.0285268059
 H          4.3757463756       -2.4184966443        0.9756160333
 C          5.9904136735       -1.2501422280        1.7756804488
 H          5.3669901298       -0.9393360330        2.6179431473
 H          7.0037533409       -1.4129842381        2.1494509651
 C          6.0233716362       -0.0990660385        0.7617879077
 H          6.2246027165        0.8286360548        1.3032316365
 H          6.8199050469       -0.2599566504        0.0355129318
 H          4.4082966245       -3.3143927696       -1.2227207434
 H          5.9308711690       -3.5242520844       -2.0892564540
 H          6.3482721630       -1.0477178761       -1.8547932054
 H          4.9745464081       -1.5110019683       -2.8742635627
 O          3.1975053209       -0.5172569028       -1.6696795103
 C          2.1701322630        0.2499438768       -1.1297993127
 O          1.1128815975        0.1935990693       -1.7835298302
 O          3.9406971907        1.5135539975        1.7669571141
 C          1.3563935361        1.8299439637        0.6796390605
 C          0.0718979146        1.0505226031        0.7965270318
 C         -0.0155410725        0.0320777058        1.7414137831
 C         -1.1697955770       -0.7165825033        1.8692840020
 C         -2.2604670260       -0.4698167219        1.0539305409
 C         -2.1833548602        0.5417544963        0.1069199062
 C         -1.0259846707        1.3009271836       -0.0105964992
 H         -0.9716263301        2.0718307602       -0.7637000379
 N         -3.2773200699        0.7804332395       -0.7397688442
 S         -4.8091908579        0.9124370425       -0.0776517815
 O         -5.5664754256        1.6997766370       -1.0263839557
 O         -4.7593225734        1.4153977353        1.2760269049
 C         -5.4303135162       -0.7562824505       -0.0854116871
 C         -5.4101631992       -1.4533923624       -1.2774644389
 C         -5.9025391263       -2.7483567956       -1.3034589476
 C         -6.4065700134       -3.3201741762       -0.1446303662
 C         -6.4221670647       -2.6062208108        1.0436570115
 C         -5.9303194757       -1.3105319667        1.0765198424
 H         -5.9170794690       -0.7196581880        1.9785637008
 H         -6.8140668547       -3.0527206978        1.9433954920
 H         -6.7891184336       -4.3283940862       -0.1682241784
 H         -5.8910194436       -3.3069324215       -2.2255775817
 H         -5.0115687642       -0.9738422493       -2.1560049976
 H         -3.1098741355        1.4875518544       -1.4399461456
 H         -3.1625916512       -1.0528465789        1.1434266663
 H         -1.2215737851       -1.5029069012        2.6071139032
 H          0.8392864463       -0.1680609750        2.3732077280
 H          1.7337647878        2.0132114202        1.6993711291
 C          1.1692407076        3.1987258380        0.0423202157
 C          2.3432576400        3.9515825980       -0.5063271496
 C          1.2830384592        3.4393108116       -1.4321488910
 H          0.6112807002        4.1548471435       -1.8846904686
 H          1.5122548571        2.5970565859       -2.0656622136
 H          2.4038781135        5.0144950688       -0.3274209741
 H          3.3005966814        3.4511733546       -0.5009153721
 H          0.4250003798        3.7868278982        0.5721861488
