  62
        -98.93880265
 C          1.8159945668        1.1115016548        0.4747029267
 C          2.0936653326       -0.1104316860        1.1412933698
 C          3.4988659876       -0.5281503715        1.1799227233
 C          4.4420431638        0.2619415280        0.6364458915
 C          5.9225423698       -0.0062207931        0.6193652361
 C          6.3780998250       -0.9189237540       -0.5272568759
 C          5.9967700459       -2.3921194499       -0.3765235783
 H          6.3179192019       -2.7517069923        0.6015270559
 H          6.5599973668       -2.9475792194       -1.1290135653
 C          4.5013167039       -2.6823802328       -0.5676525393
 H          4.3782356983       -3.5498003075       -1.2202527155
 H          4.0253892928       -1.8365812623       -1.0696697951
 C          3.7414710668       -2.9790497253        0.7255366198
 H          4.1188903435       -3.9035437886        1.1685909728
 H          2.6875945466       -3.1315052569        0.4763087558
 C          3.8235857469       -1.8641096717        1.7764379008
 H          4.8139969903       -1.8482402603        2.2312077427
 H          3.0833004836       -2.0705535518        2.5533423884
 H          7.4669940230       -0.8520889693       -0.5841627073
 H          5.9716913460       -0.5320314705       -1.4645375861
 H          6.2275051521       -0.4381634285        1.5729473799
 H          6.4123466524        0.9629365873        0.5031329217
 O          4.1438223676        1.4447873403        0.0414407440
 C          2.8309288699        1.8900662801       -0.0840841362
 O          2.7320079134        2.9704857970       -0.6923342616
 O          1.2043569868       -0.8133485008        1.6935936998
 C          0.3585640505        1.5308180941        0.4096401661
 C         -0.2901630287        1.0685880243       -0.8707677568
 C          0.2814160966        1.3295485204       -2.1124311400
 C         -0.3398372390        0.9004157801       -3.2710030049
 C         -1.5319552366        0.1997857577       -3.2155464939
 C         -2.1110152512       -0.0694056983       -1.9808973243
 C         -1.4895428646        0.3727267821       -0.8206125999
 H         -1.9339801221        0.1485581154        0.1361228905
 N         -3.3345604567       -0.7459979801       -1.8976719786
 S         -3.6468445172       -1.8210074624       -0.6509786594
 O         -2.4574046130       -2.5317399885       -0.2472566306
 O         -4.7374089555       -2.6310269752       -1.1508466406
 C         -4.2535205051       -0.7883880954        0.6657272297
 C         -3.6253392552       -0.7963204036        1.8953113774
 C         -4.1178537193        0.0180595614        2.9034584497
 C         -5.2242737227        0.8190547129        2.6658001287
 C         -5.8466624514        0.8113864619        1.4263556609
 C         -5.3594158187        0.0000314360        0.4145745794
 H         -5.8167687629       -0.0388435143       -0.5598367319
 H         -6.7068026738        1.4358007689        1.2463079591
 H         -5.6019696551        1.4529282447        3.4524813421
 H         -3.6319249858        0.0253093306        3.8661275750
 H         -2.7599027154       -1.4261173939        2.0367012003
 H         -3.7000352727       -1.0750164404       -2.7792890271
 H         -2.0111119148       -0.1387655060       -4.1216759798
 H          0.1122309369        1.1095636201       -4.2290220488
 H          1.2114939637        1.8753663000       -2.1588291012
 H         -0.1215511027        0.9783645577        1.2334461214
 C          0.1430543166        3.0141546456        0.6788989995
 C         -0.2982610094        3.9930988756       -0.3628557313
 C         -1.2499985360        3.5706057988        0.7133330626
 H         -1.5065149474        4.2768315090        1.4880198268
 H         -2.0539953133        2.9056722807        0.4344280842
 H          0.1271515032        4.9842334295       -0.3257830303
 H         -0.4665675724        3.6320414032       -1.3647768553
 H          0.8366949830        3.3901793219        1.4243010933
