  62
        -98.94472665
 C         -1.5020578834       -1.7724862591       -0.4713476126
 C         -1.5369768587       -0.5985466334       -1.2649401880
 C         -2.7436163307        0.2347588582       -1.1269810019
 C         -3.7134289472       -0.1317755325       -0.2720491361
 C         -4.9654994137        0.6500700215       -0.0013053182
 C         -4.7782366030        1.6231192889        1.1704073220
 C         -3.5259204717        2.4940290456        1.0637438297
 H         -3.5285557662        3.1736039481        1.9193483655
 H         -2.6337926089        1.8700882955        1.1609963737
 C         -3.4236495514        3.3079725571       -0.2334001624
 H         -4.4033398594        3.3781489212       -0.7090123813
 H         -3.1087293745        4.3231794781        0.0174353116
 C         -2.4038549232        2.7616636150       -1.2342761761
 H         -2.2246137104        3.5292652934       -1.9926229012
 H         -1.4579608792        2.5816505243       -0.7165500575
 C         -2.8162115903        1.4784307032       -1.9674990130
 H         -2.1123700714        1.3259144496       -2.7911457677
 H         -3.8167821421        1.6007531726       -2.3887858317
 H         -5.6612371491        2.2626034186        1.2304453523
 H         -4.7139189616        1.0447071053        2.0950911250
 H         -5.7615667077       -0.0540056564        0.2479870149
 H         -5.2459526788        1.1974880865       -0.8992363893
 O         -3.6443016250       -1.2608528034        0.4799081164
 C         -2.5392293329       -2.0914681578        0.4087421941
 O         -2.5996786260       -3.0864722818        1.1606217323
 O         -0.6293322461       -0.2477111156       -2.0607982164
 C         -0.3305426090       -2.7414675495       -0.4513812402
 C          0.6460611829       -2.3774427624        0.6404745296
 C          1.2785881080       -3.3597762565        1.3940869426
 C          2.1735301422       -3.0105590602        2.3900062180
 C          2.4452909276       -1.6819310958        2.6606740105
 C          1.8020351768       -0.6897466840        1.9264023399
 C          0.9224263133       -1.0463896266        0.9146844036
 H          0.4213710179       -0.2730126646        0.3580173066
 N          2.0121799610        0.6572972639        2.2262386179
 S          1.6744989649        1.9337945841        1.2098339678
 O          2.1680987196        3.0822531598        1.9406993242
 O          0.2757201691        1.9537319722        0.8694542568
 C          2.7049881196        1.6836193132       -0.2231410413
 C          4.0552721460        1.9380505005       -0.0649601987
 C          4.9081061071        1.7481722413       -1.1383160227
 C          4.3983033068        1.3100911766       -2.3520592350
 C          3.0428754369        1.0637452304       -2.4946002948
 C          2.1817350187        1.2474316835       -1.4220790957
 H          1.1265836961        1.0434198117       -1.5197954105
 H          2.6382643457        0.7240341958       -3.4343990251
 H          5.0600010324        1.1621900082       -3.1909285681
 H          5.9628107388        1.9425906641       -1.0282272113
 H          4.4061517528        2.2976992698        0.8886692969
 H          2.7390329924        0.8598677659        2.8937551361
 H          3.1320960672       -1.4098615302        3.4472619957
 H          2.6599649360       -3.7813154278        2.9683191409
 H          1.0482429392       -4.3991686030        1.2121304650
 H         -0.7645665579       -3.7193101440       -0.1852726279
 C          0.3442933976       -2.8980384160       -1.8074960161
 C          1.6850637330       -2.3158764400       -2.1262374032
 C          1.5347062071       -3.7970925978       -1.9675313513
 H          1.5907747298       -4.4206873018       -2.8468870258
 H          1.9474158899       -4.2480903604       -1.0785810488
 H          1.8301108160       -1.9084886180       -3.1143063624
 H          2.1959886320       -1.7649767478       -1.3513916682
 H         -0.3799841862       -2.9061396887       -2.6152376764
