  62
        -98.94362671
 C          1.6421615601        0.1480198198        0.8372591307
 C          2.9248195202       -0.1433340598        1.3596946007
 C          4.0625881500        0.4220654104        0.6228810906
 C          3.8303790298        1.1708711202       -0.4708851995
 C          4.8968162597        1.7601399203       -1.3472039996
 C          5.2645113099        0.8056381802       -2.4918818295
 C          5.5440435902       -0.6265093497       -2.0361216193
 H          4.6214602804       -1.0630475698       -1.6464871992
 H          5.8214694204       -1.2015633797       -2.9222661592
 C          6.6500241203       -0.7519467192       -0.9789173992
 H          7.2575371201        0.1537180309       -0.9689879594
 H          7.3067226205       -1.5794948191       -1.2557144591
 C          6.1457269104       -1.0387815891        0.4366879208
 H          5.4623866906       -1.8916384493        0.4161509509
 H          7.0035351204       -1.3228423288        1.0521841308
 C          5.4410533201        0.1262207208        1.1434193006
 H          5.3116314402       -0.1521357691        2.1934671907
 H          6.0701997599        1.0174964409        1.0999036405
 H          4.4355287699        0.7821914499       -3.2028910095
 H          6.1417944898        1.2035843404       -3.0051213895
 H          5.7764745096        1.9775997006       -0.7446176096
 H          4.5179188895        2.6916655201       -1.7707274897
 O          2.5839388998        1.4383917698       -0.9357195495
 C          1.4579213099        0.9245330796       -0.3072768695
 O          0.3823063998        1.2319798493       -0.8521921995
 O          3.1094889203       -0.8458434396        2.3903648008
 C          0.4204155002       -0.4258191804        1.5337650407
 C         -0.2942169496       -1.3525604407        0.5824764309
 C          0.3929619407       -2.4567944606        0.0826527610
 C         -0.2065496891       -3.3087333409       -0.8235466388
 C         -1.5025103492       -3.0778037912       -1.2523325589
 C         -2.1971282894       -1.9795908713       -0.7598998790
 C         -1.5937570696       -1.1311503310        0.1593994009
 H         -2.1484019398       -0.2906791511        0.5366534907
 N         -3.4892367295       -1.6976680217       -1.2113742590
 S         -4.5927626697       -0.8282184418       -0.3186824592
 O         -4.5857558096       -1.2205192516        1.0716299309
 O         -5.8438730597       -1.0246869422       -1.0199920191
 C         -4.0868838401        0.8702419983       -0.4833415094
 C         -3.7241128302        1.3410727382       -1.7287109595
 C         -3.3422688205        2.6664337882       -1.8566312397
 C         -3.3326914107        3.4944126484       -0.7449909298
 C         -3.7058406306        3.0080197085        0.4981862403
 C         -4.0887017603        1.6834868984        0.6322122805
 H         -4.3772791702        1.2591922585        1.5812120705
 H         -3.6953925008        3.6535710086        1.3621389002
 H         -3.0284544110        4.5243028385       -0.8470732700
 H         -3.0456955606        3.0480095482       -2.8203024397
 H         -3.7363131901        0.6697144480       -2.5711117594
 H         -3.9097195193       -2.3780327319       -1.8248424189
 H         -1.9695274290       -3.7378322614       -1.9672639088
 H          0.3374409111       -4.1611030808       -1.2022878287
 H          1.4076412707       -2.6326547503        0.4135167311
 H          0.8131919004       -1.0249445901        2.3681915908
 C         -0.4519374400        0.6774900995        2.0925532306
 C         -1.3942493300        0.3841822895        3.2199275606
 C         -0.1665079702        1.2076508798        3.4644503505
 H         -0.2817796604        2.2662441798        3.6416787404
 H          0.6503047700        0.7599952201        4.0115780406
 H         -2.3557146601        0.8742316892        3.2310800506
 H         -1.4172033197       -0.6254684205        3.6015254908
 H         -0.7640567202        1.3908262193        1.3377786505
