  62
        -98.94289492
 C          1.0869310228        1.7218675277        0.1152411814
 C          1.8558641985        0.9754905580        1.0402933507
 C          3.0495960326        0.3181396845        0.4955700932
 C          3.3188256744        0.4084120629       -0.8198041341
 C          4.5213585782       -0.1647615365       -1.5202149690
 C          4.4009741056       -1.6529376729       -1.8743890245
 C          4.5209479336       -2.6154501902       -0.6925753610
 H          4.6546381269       -3.6158706256       -1.1085218132
 H          5.4190735250       -2.3782935743       -0.1214785171
 C          3.3014558577       -2.6297040127        0.2390118678
 H          2.4440381800       -2.1880258872       -0.2738567762
 H          3.0402477173       -3.6632598924        0.4720770909
 C          3.5059649900       -1.9086789727        1.5708037043
 H          2.5636472874       -1.9319089479        2.1232542105
 H          4.2582942513       -2.4351402145        2.1625394172
 C          3.9324536980       -0.4424217448        1.4393082502
 H          4.9712847930       -0.3806736908        1.1146455344
 H          3.8458757526        0.0282558962        2.4220601445
 H          3.4479823132       -1.8155026622       -2.3826120750
 H          5.1996913757       -1.8817897168       -2.5837230936
 H          4.6362790937        0.4019018381       -2.4467597403
 H          5.4091684060       -0.0072705455       -0.9063764023
 O          2.5178941661        1.0839070537       -1.6865581343
 C          1.4041267611        1.7823109129       -1.2415303105
 O          0.7987417601        2.4023789212       -2.1356056223
 O          1.5713114350        0.8812585484        2.2646623899
 C         -0.0786615409        2.5468682929        0.6296828472
 C         -1.3318894031        2.2984486802       -0.1705274315
 C         -2.0304531412        3.3118179466       -0.8140465720
 C         -3.1803434292        3.0284306178       -1.5285918057
 C         -3.6733883284        1.7394243020       -1.5877092091
 C         -2.9910435411        0.7180334873       -0.9357917715
 C         -1.8220646076        0.9991228649       -0.2471441412
 H         -1.2901553491        0.1991567948        0.2500323372
 N         -3.4810874668       -0.5972580274       -0.9743611466
 S         -3.4957297962       -1.5313393130        0.4158061862
 O         -4.6630855399       -2.3773645065        0.2740750157
 O         -3.4382701842       -0.7181262480        1.6064136881
 C         -2.0539009440       -2.5631016580        0.2790908274
 C         -1.1307295411       -2.6070817025        1.3035855647
 C         -0.0612995042       -3.4833403794        1.2032741841
 C          0.0683784702       -4.2899033630        0.0837335269
 C         -0.8615498544       -4.2255166292       -0.9428808095
 C         -1.9370954903       -3.3587147511       -0.8441162140
 H         -2.6910067059       -3.2924744702       -1.6106368469
 H         -0.7542936637       -4.8522913738       -1.8134820202
 H          0.8978147502       -4.9753644215        0.0119858731
 H          0.6630313667       -3.5329630224        2.0005528814
 H         -1.2634993751       -1.9594381734        2.1564731180
 H         -4.3451146377       -0.6999816412       -1.4873806505
 H         -4.5785251788        1.5187943067       -2.1334871744
 H         -3.7053287855        3.8241445205       -2.0351036830
 H         -1.6706661048        4.3259076048       -0.7663997562
 H         -0.2584668879        2.1962158355        1.6570967218
 C          0.3301373540        4.0059292955        0.6833127089
 C         -0.3318294588        4.9414485978        1.6492361636
 C          1.0830810087        4.5048107246        1.8784855647
 H          1.8763772877        5.2212281912        1.7254920366
 H          1.2820520319        3.7961884091        2.6689709484
 H         -0.5090603451        5.9610900344        1.3421174262
 H         -1.0992825763        4.5341829387        2.2900535112
 H          0.6248920609        4.3925382187       -0.2865832261
