  62
        -98.93414101
 C         -2.4139255813       -0.9930320933        0.1355352036
 C         -2.6317416359        0.3970291231        0.0083462322
 C         -4.0115654039        0.8760462964        0.2322762017
 C         -4.9662983728       -0.0197573600        0.5457153319
 C         -6.4341293065        0.2241778472        0.7763310815
 C         -7.2090240171        0.4546139224       -0.5312001499
 C         -6.5234102740        1.3831644258       -1.5300004039
 H         -5.5386668732        0.9813372865       -1.7756521860
 H         -7.1145715199        1.3758873321       -2.4495942497
 C         -6.3812748212        2.8345409238       -1.0777982782
 H         -5.9601488105        3.3952497907       -1.9162201401
 H         -7.3724118907        3.2436002218       -0.8694855600
 C         -5.4914314550        3.0703471594        0.1444525757
 H         -6.0096158421        2.8101700267        1.0634337740
 H         -5.2879290008        4.1439311544        0.1963835356
 C         -4.1351672706        2.3739458531        0.0891470319
 H         -3.4928343071        2.7961347253        0.8716208147
 H         -3.6391282605        2.6275908463       -0.8547168814
 H         -8.1957954130        0.8484741926       -0.2822368140
 H         -7.3448211421       -0.5143040694       -1.0177635427
 H         -6.8279293732       -0.6725059378        1.2598134055
 H         -6.5711436844        1.0564403703        1.4601998357
 O         -4.7050047654       -1.3542916984        0.6616375136
 C         -3.4417492937       -1.8741039003        0.4662698958
 O         -3.3584306489       -3.1101525003        0.6194684683
 O         -1.7194135479        1.2148447749       -0.2835399517
 C         -1.0275045405       -1.5673708478       -0.0861601317
 C         -0.0300827899       -0.9083340312        0.8353385156
 C         -0.3336811595       -0.7999070654        2.1905243056
 C          0.5570578838       -0.2159361518        3.0694820022
 C          1.7775284924        0.2578836610        2.6207277493
 C          2.0915075230        0.1525696361        1.2715382335
 C          1.1905782282       -0.4287910361        0.3893133941
 H          1.4629575447       -0.4978185444       -0.6502781339
 N          3.3114745806        0.6450938678        0.7808247604
 S          4.0671198544       -0.1773213630       -0.4845608683
 O          3.4919853272        0.2478425061       -1.7354964778
 O          4.0577649480       -1.5998322016       -0.2263897218
 C          5.7234547807        0.4675643013       -0.3353054864
 C          6.0047375799        1.7057711186       -0.8814694283
 C          7.2809259349        2.2265423881       -0.7385065636
 C          8.2492012900        1.5052472542       -0.0556380473
 C          7.9529000095        0.2629576050        0.4847679668
 C          6.6780076781       -0.2631940724        0.3466834583
 H          6.4043105808       -1.2279204377        0.7427537598
 H          8.7086595814       -0.2967030250        1.0118896402
 H          9.2417398641        1.9129309269        0.0536207488
 H          7.5157922317        3.1906586578       -1.1599152807
 H          5.2228769073        2.2251610161       -1.4107576841
 H          3.9642580217        0.8816017680        1.5154829766
 H          2.4752646369        0.7124361544        3.3075804409
 H          0.3036545479       -0.1356808825        4.1160718001
 H         -1.2842226947       -1.1783097056        2.5429650079
 H         -1.0904834578       -2.6312511494        0.1890576017
 C         -0.6506341905       -1.4679361581       -1.5495676521
 C          0.3080581654       -2.4500787685       -2.1502285578
 C         -1.1467908095       -2.5095517173       -2.5047844306
 H         -1.4501268689       -2.2004551719       -3.4937731050
 H         -1.7415557851       -3.3131062320       -2.0948914905
 H          1.0102817048       -2.0960196302       -2.8906545455
 H          0.7088828919       -3.2165258443       -1.5035210373
 H         -0.6142646682       -0.4424411652       -1.9010068047
