  62
        -98.94410318
 C         -2.2009030352        1.2658653179        0.1479298700
 C         -2.5969574756        0.1702630750        0.9523685081
 C         -3.9770533700       -0.2931155988        0.7583340129
 C         -4.7807262793        0.3382612995       -0.1164890311
 C         -6.2186127143       -0.0002733209       -0.4026122954
 C         -6.4027212700       -1.1257697198       -1.4297549093
 C         -6.0506212710       -2.5271792520       -0.9292018509
 H         -6.5771390869       -2.7210018248        0.0058342760
 H         -6.4286936311       -3.2360977501       -1.6685223597
 C         -4.5472660086       -2.7711437326       -0.7358803566
 H         -4.2744481827       -3.7337447976       -1.1742930116
 H         -3.9807975868       -2.0055472697       -1.2712062345
 C         -4.0904238159       -2.7930408351        0.7229374758
 H         -4.5461129560       -3.6423703918        1.2370456125
 H         -3.0059849097       -2.9312807832        0.7397892582
 C         -4.4172680534       -1.5148766874        1.5063703109
 H         -3.8683416459       -1.5425066217        2.4508938368
 H         -5.4843960128       -1.4679708081        1.7225418462
 H         -7.4530248452       -1.1237930425       -1.7301854445
 H         -5.8038528753       -0.8938827421       -2.3134931277
 H         -6.7241478830       -0.2671339273        0.5258573255
 H         -6.6780536998        0.9070184396       -0.8007618658
 O         -4.3679386560        1.4050386748       -0.8516000709
 C         -3.0677244607        1.8741406039       -0.7606261816
 O         -2.8094451085        2.8255202813       -1.5253502511
 O         -1.8468326417       -0.3903755650        1.7930735085
 C         -0.7832384285        1.8058050901        0.2347760004
 C          0.1797618984        0.7085041979       -0.1476435283
 C          0.1171758586        0.1926620535       -1.4399625766
 C          0.9549416200       -0.8322153895       -1.8349200422
 C          1.8739998568       -1.3679930326       -0.9490621124
 C          1.9476719468       -0.8577617017        0.3394455488
 C          1.1134843617        0.1832744253        0.7301667525
 H          1.1802393482        0.5619801822        1.7375554337
 N          2.8773931479       -1.3954245410        1.2436392379
 S          4.4389473870       -1.6705998263        0.7160272190
 O          4.4896513403       -2.8886499713       -0.0533969175
 O          5.2517185922       -1.6428811154        1.9114313506
 C          4.8199994245       -0.2764147725       -0.3302254707
 C          5.0496436880       -0.4642616646       -1.6776132062
 C          5.3067011417        0.6404956980       -2.4740149172
 C          5.3253509126        1.9074323944       -1.9123710169
 C          5.0955712649        2.0796645886       -0.5556988369
 C          4.8386230316        0.9790602470        0.2449323313
 H          4.6634687733        1.0772734727        1.3041386598
 H          5.1127043411        3.0662299085       -0.1209929455
 H          5.5212974322        2.7665490089       -2.5344176735
 H          5.4877750929        0.5097520429       -3.5287436873
 H          5.0258923004       -1.4661888199       -2.0740839113
 H          2.8597413859       -0.9698598867        2.1582050189
 H          2.5221317205       -2.1812377547       -1.2324023460
 H          0.8900323791       -1.2235763667       -2.8388824758
 H         -0.6081730838        0.6054100052       -2.1283396547
 H         -0.7148540866        2.5984447989       -0.5232432138
 C         -0.5242059298        2.4115780710        1.5976805727
 C          0.5742010829        3.4164775073        1.7694568567
 C         -0.8581658987        3.8538176149        1.8255750851
 H         -1.2746622673        4.1412852625        2.7794059461
 H         -1.2597015088        4.4090284905        0.9903697050
 H          1.1427208423        3.4102596446        2.6872269050
 H          1.1485451461        3.6798544966        0.8944292688
 H         -0.7225588949        1.7224751489        2.4103044748
