  62
        -98.93652568
 C         -2.0712413028       -1.4933061280       -0.0218119257
 C         -1.6826150401       -0.2450789412       -0.5623090630
 C         -2.7779074362        0.6969577601       -0.8327634510
 C         -4.0537057974        0.3229711008       -0.6307516411
 C         -5.2761050736        1.1574408117       -0.9022670328
 C         -5.6459163312        2.1171435676        0.2370926289
 C         -4.7131327946        3.3172166405        0.4048733137
 H         -4.6010994604        3.8253934477       -0.5533146532
 H         -5.2061342977        4.0129337337        1.0867408358
 C         -3.3301655889        2.9665405769        0.9710581322
 H         -3.3651269620        1.9744652872        1.4270214640
 H         -3.0710164073        3.6727922037        1.7629167429
 C         -2.1956466690        2.9987250454       -0.0533742276
 H         -1.2791683522        2.6792192267        0.4496486345
 H         -2.0537120952        4.0215981547       -0.4097055874
 C         -2.4124246317        2.0843285589       -1.2663181964
 H         -3.1814789879        2.4975942148       -1.9183942586
 H         -1.4755076947        2.0213147186       -1.8255296134
 H         -5.6842366702        1.5517367986        1.1710972000
 H         -6.6522227995        2.4906529124        0.0338501461
 H         -6.1031670224        0.4586273290       -1.0453584522
 H         -5.1357078167        1.7222175705       -1.8244069652
 O         -4.3881004007       -0.9095394925       -0.1616603435
 C         -3.4110630117       -1.8286119848        0.1810321693
 O         -3.8525909149       -2.8987563091        0.6478766749
 O         -0.4939733325        0.0817533941       -0.8052041939
 C         -1.0404460809       -2.5566064668        0.3428194452
 C          0.1045440061       -1.9072004924        1.0799557150
 C         -0.2032274427       -1.4007260154        2.3449721872
 C          0.7469852695       -0.7665435934        3.1189286932
 C          2.0426199402       -0.6213041389        2.6541397061
 C          2.3658360382       -1.1214550059        1.4005489688
 C          1.4042892750       -1.7586674324        0.6242415594
 H          1.7090426624       -2.0908114221       -0.3494903659
 N          3.6835686395       -1.0319974205        0.9139545888
 S          4.0335660468       -0.3352913047       -0.5669911644
 O          3.2701830878       -0.9709263725       -1.6077615691
 O          5.4733378899       -0.4355275395       -0.6786836138
 C          3.5868852705        1.3832443647       -0.3915968577
 C          2.2591627362        1.7554564738       -0.4567272525
 C          1.9388153280        3.0929589264       -0.2749752374
 C          2.9356459917        4.0237889419       -0.0279728278
 C          4.2635431036        3.6297083942        0.0387079925
 C          4.5934961057        2.2968051832       -0.1419796584
 H          5.6117380466        1.9442453296       -0.1065831689
 H          5.0388836603        4.3540576060        0.2301311974
 H          2.6747657701        5.0611263837        0.1116914483
 H          0.9051639552        3.3960156921       -0.3291277519
 H          1.4959402280        1.0171915737       -0.6476390956
 H          4.3452735625       -0.6918552462        1.5976926532
 H          2.7930437775       -0.1296830694        3.2547244262
 H          0.4784775814       -0.3806575024        4.0908275066
 H         -1.2157704073       -1.5076854643        2.7118084391
 H         -1.5507880656       -3.2046649596        1.0756755445
 C         -0.8156604206       -3.4461130637       -0.8720435073
 C          0.0502262812       -3.1366592939       -2.0532164829
 C          0.4007876647       -4.2781119934       -1.1427906454
 H          0.2505446690       -5.2827768215       -1.5103398001
 H          1.2534935572       -4.1788300986       -0.4907458965
 H         -0.3418947009       -3.3711241787       -3.0332832240
 H          0.6524239357       -2.2419354916       -2.0460543936
 H         -1.7636480756       -3.9225317313       -1.1175416650
