  62
        -98.93732258
 C         -1.7664244337       -1.4964633124        0.3605409683
 C         -1.8072564632       -0.2548334840        1.0437329305
 C         -2.8838451060        0.6831424782        0.6776512426
 C         -3.7600707026        0.3151732289       -0.2751537027
 C         -4.9140332979        1.1143880519       -0.8166403378
 C         -4.4657092908        2.1916843131       -1.8227293488
 C         -3.1513383724        2.8888977534       -1.4769124952
 H         -2.3826996735        2.1293538197       -1.3199374626
 H         -2.8491088571        3.4824192889       -2.3441245380
 C         -3.2049085705        3.8226490067       -0.2697706614
 H         -3.8822952934        4.6500733746       -0.4947617714
 H         -2.2051523834        4.2422706260       -0.1338094720
 C         -3.6541101577        3.1911459803        1.0476937945
 H         -4.7188906661        2.9754727068        1.0181564669
 H         -3.5118099249        3.9402521823        1.8324659058
 C         -2.8714014299        1.9559124897        1.4880452198
 H         -1.8135546113        2.2171126713        1.5963935021
 H         -3.2082905924        1.6795778081        2.4949836991
 H         -5.2608954332        2.9321752430       -1.9202521237
 H         -4.3346116034        1.7082865888       -2.7937034075
 H         -5.4720305376        1.5518643246        0.0063902872
 H         -5.5741131966        0.4120596498       -1.3299325772
 O         -3.6615964128       -0.8712233507       -0.9340489078
 C         -2.6674375166       -1.7955063780       -0.6609272675
 O         -2.7146381266       -2.8060497143       -1.3890113945
 O         -0.9728069262        0.0585424335        1.9350208980
 C         -0.6560500481       -2.4506226614        0.7678288932
 C          0.5526143466       -2.2115324492       -0.1037479661
 C          0.5338547810       -2.4987784721       -1.4645216861
 C          1.6384675583       -2.2286757246       -2.2522322462
 C          2.7810106233       -1.6715235283       -1.7030617347
 C          2.8057408034       -1.3753967916       -0.3470445146
 C          1.6963338668       -1.6477858954        0.4428064384
 H          1.7133996617       -1.3980765970        1.4950510326
 N          3.9662057719       -0.8025980427        0.2175784776
 S          4.3799803728        0.7411503872       -0.2806617955
 O          4.5580032553        0.7373338867       -1.7095623813
 O          5.5306907514        1.1085668367        0.5115357681
 C          2.9909950618        1.7688817053        0.1631801440
 C          3.0614865161        2.5248496471        1.3162127121
 C          1.9709620435        3.2976983060        1.6792533299
 C          0.8314202638        3.2935289630        0.8904737094
 C          0.7719173290        2.5205140883       -0.2582225500
 C          1.8604813338        1.7480526715       -0.6290778529
 H          1.8483526987        1.1390829298       -1.5190699187
 H         -0.1196964665        2.5128464277       -0.8651139668
 H         -0.0169393802        3.8969089924        1.1740515947
 H          2.0101465609        3.8975277356        2.5743228000
 H          3.9701051900        2.5016738828        1.8963385142
 H          3.9680776247       -0.8290594592        1.2281474143
 H          3.6424091121       -1.4411716658       -2.3084398563
 H          1.6110367336       -2.4547151705       -3.3076691642
 H         -0.3613100568       -2.9160510396       -1.9004310451
 H         -0.3879137648       -2.1583839915        1.7922263825
 C         -1.0574894636       -3.9106540524        0.7791426720
 C         -0.2471359853       -4.8744191846        1.5914070400
 C         -1.6310396418       -4.5022962607        2.0301093964
 H         -2.4187595212       -5.2346651155        1.9376360678
 H         -1.7371800440       -3.8547461109        2.8883981850
 H         -0.0805326929       -5.8653634320        1.1982183795
 H          0.5858316912       -4.4794616447        2.1534182227
 H         -1.4604025787       -4.2600448343       -0.1616097469
