  62
        -98.94507723
 C         -2.3033590327       -0.6371890385        0.0679703195
 C         -1.5052686444        0.0785349119       -0.8504424004
 C         -1.6357286467        1.5478318092       -0.8519758301
 C         -2.5164012410        2.1192537209       -0.0098383266
 C         -2.8421077240        3.5799373021        0.1687096324
 C         -1.7698677658        4.3468329575        0.9531225999
 C         -0.3396191235        4.1037582187        0.4805221164
 H          0.3260164387        4.6696075199        1.1389737837
 H         -0.0884321647        3.0496115739        0.6127260588
 C         -0.0504123006        4.5325821048       -0.9569564419
 H         -0.3202670678        5.5843280643       -1.0780194131
 H          1.0297177243        4.4472243847       -1.1017711259
 C         -0.7371132956        3.7164860067       -2.0569531906
 H         -0.2006664497        3.9135399298       -2.9894771657
 H         -1.7621488443        4.0418700895       -2.2159031499
 C         -0.6989186437        2.2088424122       -1.8330737928
 H         -0.8727139160        1.7023373421       -2.7896023700
 H          0.3134024259        1.9187090396       -1.5266502959
 H         -2.0001491693        5.4129004929        0.8947297683
 H         -1.8306530442        4.0443196157        2.0017305457
 H         -3.0142199426        4.0471096812       -0.7965860851
 H         -3.7784875754        3.6210478139        0.7304759979
 O         -3.2761981184        1.3844212739        0.8554699564
 C         -3.1710847877        0.0110120772        0.9424701185
 O         -3.8961045778       -0.5132580224        1.8150100679
 H         -0.3532334024       -0.9135668663        1.6574583088
 C          0.0611926739       -1.7768629357        1.1569831316
 C         -0.7445071036       -2.5506450096        0.3316956189
 C         -0.1833701747       -3.6632019318       -0.2838953013
 C          1.1541141918       -3.9691329763       -0.0998350197
 C          1.9652705076       -3.1608746049        0.6755764882
 C          1.4105152246       -2.0518803550        1.3030757461
 N          2.1943879410       -1.1704196660        2.0787025300
 S          2.3573381361        0.3910102280        1.4842772932
 O          3.2408640138        1.0576300799        2.4176815802
 O          1.0604398656        0.9851602665        1.2977610872
 C          3.2028134832        0.1760205516       -0.0724233217
 C          4.5736067393        0.3513888680       -0.1032172785
 C          5.2556357380        0.1159448852       -1.2854614232
 C          4.5590212509       -0.2992643510       -2.4107709842
 C          3.1850812795       -0.4744870165       -2.3613192637
 C          2.4936253847       -0.2384568821       -1.1819853827
 H          1.4227071114       -0.3658900143       -1.1287678340
 H          2.6355970152       -0.7962600463       -3.2313976340
 H          5.0887178762       -0.4865989038       -3.3315579943
 H          6.3241743478        0.2540419026       -1.3250929751
 H          5.0705485402        0.6780999063        0.7961305665
 H          3.1130946945       -1.5323402318        2.2974486962
 H          3.0159515171       -3.3799490510        0.7936021601
 H          1.5748160399       -4.8366648853       -0.5847789004
 H         -0.7937265615       -4.2884910190       -0.9149104134
 C         -2.1885296381       -2.1480173241        0.1524044863
 H         -2.7484513733       -2.4473823529        1.0511465688
 C         -2.8359142769       -2.7853456727       -1.0614892887
 C         -3.5158893051       -4.1162936254       -0.9517645704
 C         -4.3305166598       -2.8700905081       -1.1202101361
 H         -4.8209089927       -2.6947288251       -2.0659632152
 H         -4.8789367469       -2.4938778963       -0.2685543993
 H         -3.4517428655       -4.7990258793       -1.7856745882
 H         -3.5239368723       -4.5968491270        0.0149223808
 H         -2.3118130402       -2.5494978169       -1.9807063574
 O         -0.7098404525       -0.4858638256       -1.6487136392
