  62
        -98.94668752
 C          1.2214055414        1.2193036946        0.0799256513
 C          1.8155700964        0.5124456339        1.1524284129
 C          2.5586996304       -0.7014928633        0.7916662984
 C          2.5964323996       -1.0885544484       -0.4966115813
 C          3.3779777813       -2.2611518731       -1.0134877810
 C          4.7927310745       -1.8393715824       -1.4350918615
 C          5.5323418611       -1.0156762174       -0.3809485635
 H          6.5299000901       -0.8057640608       -0.7728311332
 H          5.0270065051       -0.0550125281       -0.2586124781
 C          5.6550659364       -1.6999018954        0.9877557470
 H          5.4770670579       -2.7709845361        0.8848582813
 H          6.6772737621       -1.5758740810        1.3514817323
 C          4.7283615972       -1.1329872516        2.0649211477
 H          5.0442882764       -1.5349016638        3.0314625142
 H          4.8417472976       -0.0468549661        2.1104421359
 C          3.2376185292       -1.4554944675        1.9004273213
 H          2.7306041227       -1.1558025952        2.8224897733
 H          3.1074944927       -2.5322093148        1.7729864765
 H          5.3671057173       -2.7387883699       -1.6643855398
 H          4.7191859854       -1.2414414770       -2.3462642458
 H          2.8603785462       -2.6699056360       -1.8822687283
 H          3.4338463656       -3.0263891399       -0.2416586230
 O          1.9600949463       -0.4198450056       -1.4890831923
 C          1.2471718820        0.7415202425       -1.2313333131
 O          0.6993888944        1.2368337301       -2.2316030919
 O          1.7256372103        0.8782699825        2.3568063281
 C          0.4592543945        2.4987589619        0.3851739987
 C         -1.0106463151        2.2383689006        0.1717269578
 C         -1.7827962957        2.8697528199       -0.7928483583
 C         -3.1130935352        2.5223256285       -0.9619866638
 C         -3.7003075578        1.5492658012       -0.1742831699
 C         -2.9366940190        0.9196967932        0.8005784275
 C         -1.6063772239        1.2651123863        0.9662804827
 H         -1.0096022458        0.7672295185        1.7204264328
 N         -3.5212340367       -0.0909948818        1.5986379231
 S         -3.9901137260       -1.4595596332        0.7513562883
 O         -5.1758519009       -1.1555268247       -0.0075683185
 O         -4.1161684786       -2.5063694843        1.7399456443
 C         -2.6284345527       -1.7992632252       -0.3491367801
 C         -2.6704481221       -1.3312741747       -1.6466619361
 C         -1.5821134216       -1.5546122795       -2.4739241916
 C         -0.4769942190       -2.2371492051       -1.9915847457
 C         -0.4454841655       -2.6924685132       -0.6825393063
 C         -1.5284825953       -2.4669909354        0.1508414769
 H         -1.5428318962       -2.8125608563        1.1725441644
 H          0.4211753836       -3.2136899333       -0.3077137524
 H          0.3681492269       -2.4043341815       -2.6402009665
 H         -1.5919723902       -1.1880653995       -3.4875208202
 H         -3.5505945630       -0.8104477113       -1.9862454506
 H         -2.9285222997       -0.3679322816        2.3693601794
 H         -4.7294329292        1.2559781820       -0.3047640093
 H         -3.7000930346        3.0158008627       -1.7215649052
 H         -1.3410399443        3.6235274582       -1.4229049011
 H          0.6172397552        2.6824076943        1.4577520329
 C          1.0022869892        3.6745320453       -0.3960493474
 C          0.7425198208        5.0689125986        0.0878147119
 C          2.1184659023        4.4843423821        0.1897799031
 H          2.8881152317        4.8550317265       -0.4704873304
 H          2.4825891367        4.2003610440        1.1665550997
 H          0.5678126450        5.8450085110       -0.6415839806
 H          0.1717058989        5.1831314482        0.9969658333
 H          1.0234423475        3.4995500364       -1.4649282029
