  62
        -98.94413900
 C          2.2319315015        0.8171130509        0.4432241939
 C          2.4829682340        0.0502161811       -0.7205266922
 C          3.3591004736       -1.1140249776       -0.5358973532
 C          3.8210722935       -1.4177403996        0.6906184479
 C          4.7049878585       -2.5840971989        1.0407342948
 C          6.2001974749       -2.3237104736        0.8113179889
 C          6.6368431829       -2.2867480303       -0.6537601318
 H          7.7282431004       -2.3152155830       -0.6627658852
 H          6.2836311113       -3.1859786156       -1.1593928421
 C          6.1692304737       -1.0432475759       -1.4229957617
 H          5.8663375810       -0.2689518290       -0.7142957856
 H          7.0026875891       -0.6384695456       -2.0014385826
 C          5.0207547597       -1.2964585057       -2.3997631009
 H          4.7468393039       -0.3441348704       -2.8606373763
 H          5.3551484193       -1.9701680312       -3.1916715302
 C          3.7613692111       -1.8892396929       -1.7540043338
 H          2.9419835101       -1.8229927583       -2.4739201532
 H          3.9242822872       -2.9372184473       -1.5033533317
 H          6.4688384296       -1.3821750036        1.2960265734
 H          6.7501643006       -3.1237043956        1.3123558554
 H          4.5495123547       -2.7841538476        2.1032020323
 H          4.3958317776       -3.4623209649        0.4731660910
 O          3.5078431014       -0.6858277197        1.7944097360
 C          2.7268102248        0.4550206567        1.6949520533
 O          2.5356532533        1.0433860252        2.7801951657
 O          2.0012585607        0.3186894237       -1.8506225641
 C          1.3736949331        2.0649539064        0.3535953843
 C         -0.0132643417        1.7223833674       -0.1363253015
 C         -0.7036485508        2.4926048675       -1.0628111330
 C         -1.9854118633        2.1418634712       -1.4508811116
 C         -2.6062656461        1.0238777287       -0.9258350327
 C         -1.9298343695        0.2526201552        0.0103630512
 C         -0.6487686660        0.6092587057        0.4003874308
 H         -0.1259912265        0.0090073745        1.1364196883
 N         -2.5556012299       -0.8895619559        0.5482496278
 S         -4.0233431420       -0.6511853961        1.3351466812
 O         -4.1011632335        0.6710032084        1.9132012216
 O         -4.1472416159       -1.7626615363        2.2531639992
 C         -5.2376086550       -0.8246919655        0.0449255350
 C         -5.2787885584       -2.0143106915       -0.6556915229
 C         -6.2227786573       -2.1671577690       -1.6585391760
 C         -7.1062993531       -1.1354700252       -1.9396546236
 C         -7.0545520576        0.0510009441       -1.2241798179
 C         -6.1115306806        0.2112897489       -0.2207597453
 H         -6.0292356102        1.1172439857        0.3580847636
 H         -7.7425584272        0.8514176215       -1.4438898278
 H         -7.8397274403       -1.2573381619       -2.7209725607
 H         -6.2660256331       -3.0882407818       -2.2171395592
 H         -4.5769261616       -2.7915248153       -0.4030297625
 H         -1.9427047778       -1.4419749472        1.1310052769
 H         -3.6007584297        0.7429234955       -1.2316407394
 H         -2.5069626536        2.7473095526       -2.1762234849
 H         -0.2367986738        3.3678222708       -1.4837059491
 H          1.2794754400        2.4441079282        1.3826160119
 C          2.0702695679        3.1128141715       -0.4904406549
 C          1.8707789601        4.5705209287       -0.2076561290
 C          3.1762454178        3.9144648327        0.1249910000
 H          4.0417667941        4.1480061077       -0.4766591298
 H          3.4056857353        3.7249723046        1.1640291231
 H          1.8433093064        5.2585490932       -1.0391422243
 H          1.2169051879        4.8373063113        0.6089997783
 H          2.1923341230        2.8005056282       -1.5210971633
