  62
        -98.94739796
 C         -2.5387663416       -0.2181072656       -0.0136616066
 C         -2.2531170237       -1.2378311075       -0.9513974263
 C         -1.6977006040       -2.4782770267       -0.4006812614
 C         -1.5004739468       -2.5887429833        0.9257776374
 C         -0.9700772450       -3.7995400320        1.6453569430
 C          0.5616542168       -3.8893820854        1.6609337930
 C          1.1972692457       -4.2950024634        0.3308029222
 H          2.2370492948       -4.5564115294        0.5367251807
 H          0.7039183233       -5.1891546787       -0.0523954459
 C          1.1714004060       -3.1911758226       -0.7349149365
 H          2.1495234964       -3.1217836236       -1.2181083161
 H          0.9959199287       -2.2234047419       -0.2587059826
 C          0.1402155426       -3.3900747169       -1.8461252761
 H          0.4091960463       -4.2642350174       -2.4445422011
 H          0.1798004919       -2.5098124734       -2.4938632183
 C         -1.3043110909       -3.5620259429       -1.3588282742
 H         -1.9667831261       -3.4937351531       -2.2257128113
 H         -1.4302972759       -4.5417051782       -0.8974016720
 H          0.8390679996       -4.6282222762        2.4165654751
 H          0.9624287019       -2.9208441325        1.9703695125
 H         -1.3862472664       -4.7036139128        1.1994307477
 H         -1.3222504471       -3.7242784167        2.6764537985
 O         -1.8005014066       -1.5898183288        1.7969573049
 C         -2.2783450996       -0.3691180264        1.3482695121
 O         -2.4527854952        0.4751246656        2.2490257755
 O         -2.4604290665       -1.1182259414       -2.1907124960
 C         -3.0249406445        1.1325975998       -0.5113667265
 C         -1.9876043068        2.1687518668       -0.1526494612
 C         -2.2711728119        3.3751966379        0.4724468549
 C         -1.2434067083        4.2289168098        0.8371654206
 C          0.0774994289        3.8936238467        0.6050752155
 C          0.3691515149        2.6977056687       -0.0429229167
 C         -0.6625558785        1.8657401943       -0.4395093260
 H         -0.4273712179        0.9395833077       -0.9442319875
 N          1.6962438290        2.3178650173       -0.3132687298
 S          2.0396624875        0.6616199440       -0.3199704020
 O          1.7175148268        0.1377172137       -1.6233094632
 O          1.4250754342        0.0131506945        0.8166547290
 C          3.8117196169        0.7028085705       -0.1253370446
 C          4.3689083450        0.4577764916        1.1150135420
 C          5.7465463909        0.5230581240        1.2561220229
 C          6.5383455431        0.8341168814        0.1610427712
 C          5.9646142432        1.0762368559       -1.0785307845
 C          4.5884580458        1.0103090100       -1.2267343013
 H          4.0971595758        1.1795059600       -2.1706286860
 H          6.5834497387        1.3146851340       -1.9283667068
 H          7.6097059384        0.8854226589        0.2738029699
 H          6.1948315772        0.3312618042        2.2176366999
 H          3.7126529679        0.2136866815        1.9352408068
 H          2.3717586323        2.8400150835        0.2282093567
 H          0.8768323066        4.5459476816        0.9222522670
 H         -1.4750792140        5.1599546369        1.3320710813
 H         -3.2927391313        3.6386330388        0.6923518530
 H         -3.0669272299        1.0449418685       -1.6076333401
 C         -4.4098594159        1.4465601549        0.0110582374
 C         -5.3203620331        2.3496005013       -0.7650179327
 C         -5.5996049946        0.8789915120       -0.7012289338
 H         -6.4366623165        0.5354641320       -0.1123643785
 H         -5.4101408535        0.2813448519       -1.5809914181
 H         -5.9709633999        3.0171115623       -0.2206327566
 H         -4.9481480578        2.7540239007       -1.6940956275
 H         -4.4451177806        1.4857207151        1.0939284826
