  62
        -98.94065306
 C         -1.6043691691       -1.3681716682        0.7167730480
 C         -1.6113351488        0.0097046662        1.0593520609
 C         -2.8804604986        0.7198084393        0.8759753346
 C         -3.9608364187        0.0458603300        0.4428218975
 C         -5.3369062263        0.6185519973        0.2355296051
 C         -5.5314855742        1.2989945709       -1.1264185706
 C         -4.8135559201        2.6389968774       -1.2922874002
 H         -5.2076456714        3.1028115794       -2.1988000384
 H         -5.0677948321        3.2914613624       -0.4564492814
 C         -3.2874622179        2.5270381174       -1.4171871947
 H         -3.0166519585        1.4973097552       -1.6619019922
 H         -2.9435888594        3.1521099085       -2.2441861599
 C         -2.5134693394        2.9583554311       -0.1712290295
 H         -2.6636753406        4.0265446833       -0.0001898854
 H         -1.4499911174        2.7860729421       -0.3545182226
 C         -2.8972570378        2.2002418298        1.1061111540
 H         -3.8770128554        2.5218499954        1.4586672144
 H         -2.1539586742        2.4239796249        1.8748528240
 H         -6.6033390211        1.4657393332       -1.2569189105
 H         -5.2049060944        0.6111364380       -1.9098681596
 H         -6.0360421549       -0.2176612653        0.3052418504
 H         -5.5622416466        1.3269065315        1.0333027833
 O         -3.9233012447       -1.2803795814        0.1527336263
 C         -2.7410681285       -2.0133862102        0.2303421683
 O         -2.8647190395       -3.1928412848       -0.1471207408
 O         -0.5991650065        0.6118162630        1.5038532598
 C         -0.2648992314       -2.0696798712        0.8527934871
 C          0.5657989349       -1.7833090325       -0.3719547206
 C          0.0604122820       -2.0182975822       -1.6476082905
 C          0.8214408878       -1.7292174832       -2.7646299002
 C          2.0888289774       -1.1880034965       -2.6328287774
 C          2.6004958370       -0.9460412373       -1.3632205347
 C          1.8382888027       -1.2494172582       -0.2422328970
 H          2.2473808266       -1.0606323452        0.7382035979
 N          3.8845432341       -0.4140595328       -1.2046055680
 S          4.2925457695        0.5257313150        0.1113668019
 O          5.4958872660        1.2102869798       -0.3122084636
 O          4.4246858997       -0.2998260003        1.2860224149
 C          2.9813016793        1.7146210530        0.3278395749
 C          2.4320454449        1.8982696965        1.5790782803
 C          1.4564730740        2.8664670378        1.7494132506
 C          1.0470545928        3.6286298110        0.6681994839
 C          1.6031918318        3.4277068154       -0.5860416668
 C          2.5829385551        2.4649881903       -0.7608184117
 H          3.0408940786        2.2961112592       -1.7220482411
 H          1.2750219210        4.0185426487       -1.4266076114
 H          0.2867779802        4.3819360087        0.8035584645
 H          1.0144016857        3.0133637936        2.7211771855
 H          2.7706616162        1.2790559152        2.3943209246
 H          4.3422009026       -0.1154426761       -2.0523593424
 H          2.6797946177       -0.9572165702       -3.5058214784
 H          0.4221515534       -1.9198783296       -3.7494094867
 H         -0.9329031757       -2.4313949346       -1.7483101864
 H          0.2317471770       -1.5736513467        1.7028285344
 C         -0.3564279820       -3.5501108322        1.1861724725
 C          0.0546271797       -4.6368304522        0.2430112849
 C          0.9016602797       -4.3277785289        1.4386574803
 H          0.9218840459       -5.0304195670        2.2579539316
 H          1.8402466845       -3.8197823312        1.2699769186
 H         -0.5325171594       -5.5423755415        0.2404690236
 H          0.4277429164       -4.3585862753       -0.7299486250
 H         -1.2013370504       -3.7714458318        1.8293327831
