  62
        -98.94433803
 C         -2.3720010205       -1.1132926593        0.2279339401
 C         -2.4120046004        0.1855303903       -0.3346700210
 C         -3.4536101204        1.0761177807        0.1948469282
 C         -4.2613183106        0.6538794716        1.1840223784
 C         -5.3551473607        1.4526417121        1.8392354076
 C         -6.6864306806        1.4299098815        1.0755433974
 C         -6.7095849404        2.2466650104       -0.2170666833
 H         -6.3591194304        3.2587552806       -0.0123308740
 H         -7.7528015303        2.3202015402       -0.5305807435
 C         -5.8916234902        1.6393095595       -1.3653020227
 H         -6.4784783001        1.6691034487       -2.2860983828
 H         -5.6864352003        0.5881162797       -1.1503953618
 C         -4.5694247602        2.3527530492       -1.6485973331
 H         -4.7675861401        3.3701608690       -1.9932027539
 H         -4.0571209201        1.8190150286       -2.4531905025
 C         -3.6185550803        2.4210997502       -0.4461592130
 H         -3.9817575404        3.1479072308        0.2801985864
 H         -2.6359877603        2.7434314399       -0.8005584031
 H         -7.4523520106        1.8280403921        1.7449876270
 H         -6.9445320505        0.3916080613        0.8551222782
 H         -5.0270872307        2.4839594222        1.9720609368
 H         -5.5156424608        1.0091229929        2.8242283179
 O         -4.1578857107       -0.5859839580        1.7316868994
 C         -3.2289974806       -1.4983178184        1.2618835403
 O         -3.2610914307       -2.6038326579        1.8384373212
 O         -1.6322168602        0.5906219195       -1.2370199712
 C         -1.3603719904       -2.1468618697       -0.2426012589
 C          0.0150065095       -1.6904577393        0.1789312309
 C          0.4155807393       -1.8863966583        1.4980931511
 C          1.6459357493       -1.4346605479        1.9353116709
 C          2.4998065294       -0.7708489986        1.0705488505
 C          2.1006382796       -0.5525541597       -0.2403618297
 C          0.8711340596       -1.0253999301       -0.6831968095
 H          0.5694424698       -0.8387307309       -1.7013616997
 N          2.9539414497        0.1209353895       -1.1286089402
 S          3.7836202797        1.4792328600       -0.6031253512
 O          3.0678069995        2.1868036608        0.4332626382
 O          4.0799143299        2.2263254790       -1.8061512017
 C          5.3020600896        0.8109753805        0.0473517296
 C          6.0306699797       -0.0481885802       -0.7518984596
 C          7.2175127396       -0.5714129698       -0.2645465090
 C          7.6555744294       -0.2265840788        1.0054514308
 C          6.9153337093        0.6407000719        1.7939551100
 C          5.7265241994        1.1668962115        1.3124024994
 H          5.1153360993        1.8401337620        1.8925825387
 H          7.2574675792        0.9085348627        2.7807152198
 H          8.5790912294       -0.6362288485        1.3830550813
 H          7.7958907597       -1.2461855603       -0.8748130784
 H          5.6570975098       -0.2896833310       -1.7328330694
 H          2.5469806599        0.2759797288       -2.0397390203
 H          3.4559341394       -0.4064968784        1.4086021803
 H          1.9451192391       -1.5979042571        2.9596075011
 H         -0.2598269808       -2.3881186777        2.1775571015
 H         -1.5945024305       -3.0676638192        0.3079910118
 C         -1.4905656102       -2.4209784609       -1.7262558387
 C         -0.8433492002       -3.6415569214       -2.3060432376
 C         -2.3353039002       -3.5694412112       -2.1856744179
 H         -2.9212117801       -3.4494975520       -3.0847490580
 H         -2.8180998303       -4.1691111706       -1.4278018974
 H         -0.4033962400       -3.5757123222       -3.2893940076
 H         -0.3112234803       -4.2908556108       -1.6275076370
 H         -1.5132509401       -1.5218291114       -2.3294336994
