  62
        -98.93803473
 C          2.5912858781        1.3147426134        0.1287683281
 C          2.6597093308        0.3033939819       -0.8581978642
 C          3.5767713963       -0.8183284902       -0.5844183603
 C          4.2903996626       -0.8354791864        0.5534651685
 C          5.3071435861       -1.8498620836        1.0135130351
 C          4.9703729480       -3.3339429922        0.8137925022
 C          3.4791503337       -3.6834319323        0.9267699795
 H          3.3614760522       -4.5194346175        1.6187892694
 H          2.9237438736       -2.8396937647        1.3408519952
 C          2.8571792687       -4.0928263408       -0.4106170630
 H          3.5507564960       -4.7564808272       -0.9318205745
 H          1.9443773999       -4.6608098382       -0.2140067451
 C          2.4763794345       -2.9393306732       -1.3379518569
 H          1.6182838004       -2.4016419187       -0.9224601427
 H          2.1510757975       -3.3670251842       -2.2897870295
 C          3.5906250038       -1.9148576688       -1.6104882799
 H          4.5625582893       -2.3982093728       -1.6703149507
 H          3.3794809289       -1.4358300203       -2.5703139525
 H          5.3385794365       -3.6650218743       -0.1562064736
 H          5.5310112412       -3.8881028120        1.5683447494
 H          6.2559682684       -1.6287649647        0.5161967651
 H          5.4467279851       -1.6467423377        2.0779340838
 O          4.1957451343        0.1601122416        1.4786940936
 C          3.3495020656        1.2376138054        1.3008509624
 O          3.3650619370        2.0576877958        2.2402932994
 H         -0.0358439077        1.0582766882       -1.4830645287
 C         -0.4809066758        1.3665695535       -0.5490216232
 C          0.2612009145        2.1329344479        0.3382350143
 C         -0.3131327091        2.4827372150        1.5552248209
 C         -1.5982650175        2.0777150532        1.8700539966
 C         -2.3336213294        1.3115852487        0.9830168823
 C         -1.7628104724        0.9446820548       -0.2283284989
 N         -2.4930129963        0.1483084074       -1.1308755218
 S         -3.1321169961       -1.2871143819       -0.5344919039
 O         -2.3585431570       -1.7921581392        0.5772074209
 O         -3.2563137763       -2.1593208300       -1.6819863864
 C         -4.7615027129       -0.8204574544        0.0129511324
 C         -5.6035957758       -0.2148510349       -0.8992244166
 C         -6.8760757367        0.1537044349       -0.4931758317
 C         -7.2840108448       -0.0909174572        0.8098104507
 C         -6.4283672707       -0.7036493709        1.7123817196
 C         -5.1534202679       -1.0737687586        1.3127198737
 H         -4.4513788547       -1.5467473642        1.9810456571
 H         -6.7471762143       -0.8934965599        2.7247188401
 H         -8.2747057118        0.1975474429        1.1238671213
 H         -7.5443038780        0.6303250703       -1.1921842546
 H         -5.2483228988       -0.0463685218       -1.9020485682
 H         -1.9926554662       -0.0263788914       -1.9915824533
 H         -3.3318963477        0.9858442733        1.2261877476
 H         -2.0311383964        2.3580849061        2.8182752828
 H          0.2657161983        3.0593565880        2.2624996228
 C          1.6820827413        2.5307794072        0.0166366944
 H          2.0206634824        3.2229276587        0.7988612243
 C          1.7923434760        3.2319488187       -1.3226160221
 C          1.3346875857        4.6538927825       -1.4351256512
 C          2.7968892881        4.3301501831       -1.4906748540
 H          3.3113293240        4.4164850730       -2.4359980142
 H          3.4091517791        4.5822559166       -0.6368653963
 H          0.8423104271        4.9659652455       -2.3432332082
 H          0.9550822725        5.1277949862       -0.5425684184
 H          1.6288197557        2.5798304900       -2.1699456587
 O          2.0077757502        0.3151009218       -1.9370782200
