  62
        -98.94351489
 C          1.8483964608        0.2955702902       -0.2600334303
 C          2.9827417508        0.5608087999       -1.0628402104
 C          4.2729541408        0.5913270500       -0.3615313904
 C          4.3021350909        0.3929032904        0.9693199196
 C          5.5508122209        0.3498180906        1.8008504996
 C          6.0959752608       -1.0809020194        1.9122573800
 C          6.2099518608       -1.8048955298        0.5707319102
 H          6.6331115107       -2.7920393497        0.7688361305
 H          5.2084302607       -1.9603180499        0.1632935803
 C          7.0725472407       -1.0791380701       -0.4711801301
 H          7.7067747008       -0.3412103100        0.0214149997
 H          7.7326325807       -1.8068794703       -0.9478992499
 C          6.2790969407       -0.3992349604       -1.5885427902
 H          5.5742818007       -1.1121962905       -2.0238034700
 H          6.9799607407       -0.1101659007       -2.3763364104
 C          5.5021801308        0.8598167297       -1.1835323506
 H          6.1690240209        1.5530228098       -0.6666057708
 H          5.1495919408        1.3417849395       -2.1002973207
 H          7.0763911309       -1.0400553193        2.3903095899
 H          5.4272833408       -1.6567044792        2.5561060802
 H          6.3002131809        1.0015758704        1.3558611193
 H          5.3106977610        0.7165312009        2.8002077995
 O          3.1884720709        0.1615406207        1.7101324997
 C          1.9351299209        0.0994546506        1.1184727798
 O          1.0024046109       -0.1285151291        1.9107145199
 O          2.9179603208        0.7687456195       -2.3051275204
 C          0.4816499308        0.2365599401       -0.9154046002
 C         -0.4458646991        1.2652213503       -0.3169264505
 C          0.0358105809        2.5462975403       -0.0584997609
 C         -0.7838354090        3.5137331405        0.4878484589
 C         -2.1095638790        3.2325615507        0.7679683890
 C         -2.6062830091        1.9643078206        0.4978167894
 C         -1.7749807591        0.9886136504       -0.0366006903
 H         -2.1811882892        0.0112436904       -0.2369544900
 N         -3.9432757291        1.6453388508        0.7758849996
 S         -4.8207966692        0.7097281505       -0.2973437201
 O         -4.4021739892        0.9276650101       -1.6621655602
 O         -6.2042822591        1.0191667007       -0.0026008401
 C         -4.5010020492       -0.9735692194        0.1851880904
 C         -4.3980304992       -1.2811465490        1.5272775905
 C         -4.1985717792       -2.6016582889        1.8969270709
 C         -4.1157521593       -3.5882353692        0.9259658611
 C         -4.2275500194       -3.2638854496       -0.4170758289
 C         -4.4222773193       -1.9440490997       -0.7938885793
 H         -4.5038811593       -1.6459526000       -1.8271516294
 H         -4.1634304194       -4.0323357398       -1.1712712087
 H         -3.9619217894       -4.6153130891        1.2173826414
 H         -4.1078923492       -2.8571377686        2.9404622509
 H         -4.4650897591       -0.4909807087        2.2562105602
 H         -4.4947373590        2.4063748309        1.1446621494
 H         -2.7532605989        3.9880379808        1.1925398588
 H         -0.3909371689        4.4987455306        0.6910666886
 H          1.0687987709        2.7721672802       -0.2862038810
 H          0.6496190608        0.5070399797       -1.9693455503
 C         -0.0633333293       -1.1755917099       -0.8573820497
 C         -0.9708376493       -1.6871844402       -1.9345476196
 C          0.4398011806       -2.1841732402       -1.8448285395
 H          0.6104390606       -3.1956371201       -1.5084133292
 H          1.1522990006       -1.8423573705       -2.5815427996
 H         -1.7683121894       -2.3590175600       -1.6551799393
 H         -1.2257884193       -1.0117398804       -2.7375846397
 H         -0.2357141792       -1.5111385196        0.1593725604
