  62
        -98.94682287
 C         -1.8310921890       -1.2958972497       -0.0597835874
 C         -2.8848247935       -0.5470888959        0.5202312596
 C         -3.2254374043        0.7189724236       -0.1401601543
 C         -2.5266540179        1.1043013326       -1.2228208493
 C         -2.7461483058        2.3819575560       -1.9790950944
 C         -1.8395555102        3.5039694986       -1.4566004353
 C         -1.8714049162        3.6685380155        0.0629959196
 H         -1.4065599752        2.7933388729        0.5244908895
 H         -1.2349768110        4.5221516931        0.3091767224
 C         -3.2718513800        3.8896057187        0.6520993210
 H         -3.9544238796        4.2226933518       -0.1310600804
 H         -3.2129338720        4.6895275769        1.3933699411
 C         -3.8681760443        2.6721643284        1.3615211908
 H         -3.1353299889        2.2685777560        2.0655927670
 H         -4.7319463955        3.0067241251        1.9427229502
 C         -4.3420052187        1.5314137463        0.4518105427
 H         -4.9269985107        0.8384622107        1.0639177742
 H         -4.9899959207        1.9297811241       -0.3318013493
 H         -2.1382834881        4.4396016595       -1.9340505478
 H         -0.8094100610        3.2835222102       -1.7466640607
 H         -2.5153991640        2.2019331972       -3.0307645806
 H         -3.7909194206        2.6742049105       -1.8910162778
 O         -1.5081987372        0.3747924538       -1.7384560167
 C         -1.1044059289       -0.8134821317       -1.1484836667
 O         -0.1116226084       -1.3310720557       -1.6954278002
 H         -0.0367982196       -0.6291234220        1.7775815681
 C          0.6225346956       -1.4208334375        1.4514862010
 C          0.0913332879       -2.5487697565        0.8374835424
 C          0.9608096004       -3.5524940850        0.4327978311
 C          2.3261078457       -3.4131651528        0.6192709207
 C          2.8530792517       -2.2648239808        1.1809090435
 C          1.9889575583       -1.2558288446        1.5908753991
 N          2.4630252893       -0.0418873406        2.1336206470
 S          2.1796290809        1.3402170011        1.2236609312
 O          2.7249601404        2.4276626286        2.0084645541
 O          0.7829658427        1.4314922440        0.8893232165
 C          3.1825249196        1.1139813931       -0.2346227041
 C          2.7431491224        0.2745231748       -1.2386037304
 C          3.5727212445        0.0521574498       -2.3280488218
 C          4.8148181833        0.6637702414       -2.3942980354
 C          5.2402787514        1.5038762929       -1.3758611888
 C          4.4201586964        1.7278083614       -0.2824707514
 H          4.7051223423        2.3735455790        0.5325477538
 H          6.2056775781        1.9808533748       -1.4292444733
 H          5.4532572440        0.4846630386       -3.2450499716
 H          3.2340012880       -0.6028888556       -3.1147223787
 H          1.7711876252       -0.1907202284       -1.1735971850
 H          3.4401299062       -0.0667361822        2.3934640906
 H          3.9199415416       -2.1430987995        1.2943789589
 H          2.9906691057       -4.2006761255        0.2981492187
 H          0.5740580515       -4.4342942208       -0.0510486275
 C         -1.4028601846       -2.5778273340        0.6349095029
 H         -1.8805526623       -2.5203048859        1.6280775211
 C         -1.9096901959       -3.8554295128       -0.0157778885
 C         -3.1455972146       -3.8508150387       -0.8636452961
 C         -1.8080525716       -4.0980120719       -1.4907944922
 H         -1.5810068412       -5.0979851724       -1.8304277695
 H         -1.3696722857       -3.3194174193       -2.0943670592
 H         -3.6260416041       -2.8992765535       -1.0410098662
 H         -3.8344056614       -4.6770569047       -0.7706453148
 H         -1.7777007198       -4.7182805006        0.6299306826
 O         -3.5119829436       -0.9225969255        1.5484033186
