  62
        -98.94782077
 C         -1.0678407137       -1.2148355827        0.0592013166
 C         -1.5551156307       -0.2086558052        0.9258186236
 C         -2.4449913008        0.7895462774        0.3190252588
 C         -2.7273237077        0.7062964130       -0.9939832336
 C         -3.6439029294        1.6375005117       -1.7323906386
 C         -5.0885164754        1.1184151280       -1.7304518464
 C         -5.5949461694        0.7102119362       -0.3470074906
 H         -5.0261491597       -0.1562720480       -0.0022174742
 H         -6.6324164846        0.3893723688       -0.4624362450
 C         -5.5169529241        1.8209612528        0.7096230563
 H         -6.4549765850        1.8391733192        1.2684024582
 H         -5.4121931359        2.7901583513        0.2205574936
 C         -4.3928022193        1.6453593367        1.7319138148
 H         -4.4390968351        0.6396055346        2.1567152102
 H         -4.5613884622        2.3542938075        2.5468153265
 C         -2.9701820291        1.8814089318        1.2089218301
 H         -2.3008469453        1.9100741328        2.0740157861
 H         -2.9170431821        2.8484308995        0.7032622521
 H         -5.1430256161        0.2472141490       -2.3873754288
 H         -5.7343895095        1.8957918552       -2.1428525203
 H         -3.5982332306        2.6229939552       -1.2721957285
 H         -3.2922081729        1.7158384777       -2.7628459879
 O         -2.2423395993       -0.2745907117       -1.7963655763
 C         -1.3926753358       -1.2519667258       -1.2972135976
 O         -1.0093670838       -2.0805539702       -2.1450035564
 H          0.9855635297       -0.0882149721       -0.5848038201
 C          1.6630545293       -0.9268404090       -0.5878102103
 C          1.2549138050       -2.1394776345       -0.0521229339
 C          2.1374560541       -3.2131855316       -0.1038774674
 C          3.3836749260       -3.0682388670       -0.6875384690
 C          3.7845350764       -1.8559677196       -1.2198355943
 C          2.9099055164       -0.7763242442       -1.1737695456
 N          3.2652196706        0.4632271448       -1.7175311132
 S          2.5649287875        1.8864445768       -1.2110784080
 O          1.2029098990        1.9823433922       -1.6764789174
 O          3.4693559855        2.9079545267       -1.6960998784
 C          2.6166270044        1.8372439465        0.5708223134
 C          3.8521397386        1.7667198217        1.1846895464
 C          3.9101096478        1.6940290834        2.5666034427
 C          2.7377694427        1.6838515711        3.3077863630
 C          1.5057756884        1.7624693823        2.6778543675
 C          1.4437363217        1.8451955355        1.2962502963
 H          0.4996957197        1.9016961657        0.7758883941
 H          0.5880236271        1.7348631889        3.2433988882
 H          2.7820945672        1.6147250213        4.3832281354
 H          4.8662600686        1.6384565084        3.0614820726
 H          4.7421907499        1.7805883386        0.5772157148
 H          4.2270610186        0.5671835547       -2.0008612736
 H          4.7552821439       -1.7463012205       -1.6776817618
 H          4.0557416610       -3.9118927433       -0.7264286041
 H          1.8441248891       -4.1653574598        0.3072133066
 C         -0.1003245391       -2.2429761914        0.6088128874
 H          0.0263372869       -1.9832894096        1.6717207101
 C         -0.6879905489       -3.6382506869        0.5181210858
 C         -0.4382241797       -4.6464889609        1.5987885492
 C         -1.7912860437       -4.0190753769        1.4584528951
 H         -2.6067429107       -4.6181999972        1.0819744708
 H         -2.0921100519       -3.2831631716        2.1900449806
 H          0.1702056189       -4.3438320186        2.4376689874
 H         -0.3251733619       -5.6831159435        1.3189134593
 H         -0.7607310705       -3.9898099905       -0.5049231577
 O         -1.2524714369       -0.1423881527        2.1480429831
