  62
        -98.93833228
 C         -1.3107521047       -1.5611131517       -0.5917074645
 C         -2.5191941949       -1.5608763256        0.1469799031
 C         -3.5411310720       -0.5681441812       -0.2246836241
 C         -3.2823800525        0.2953495185       -1.2241118522
 C         -4.1219566277        1.3956384292       -1.8397903361
 C         -5.4057076110        1.8672169057       -1.1629991541
 C         -5.1924457852        2.6180495882        0.1513510158
 H         -6.1693716969        2.8054559804        0.6023888922
 H         -4.7374052004        3.5862091286       -0.0732444511
 C         -4.2985479853        1.9204911463        1.1739813733
 H         -4.2145091117        2.5756079301        2.0457615553
 H         -3.2911117596        1.8061982026        0.7663586762
 C         -4.7987081484        0.5619355493        1.6610697350
 H         -5.8128005563        0.6635200134        2.0529343680
 H         -4.1502517521        0.2495528877        2.4843279158
 C         -4.7881791650       -0.5622045646        0.6119321881
 H         -5.6743150663       -0.5234808021       -0.0171088366
 H         -4.8028814929       -1.5185022454        1.1432235020
 H         -6.0848398751        1.0316164456       -1.0215504149
 H         -5.8910014704        2.5558927971       -1.8599624940
 H         -4.3679562208        1.0507955689       -2.8503416540
 H         -3.4464736208        2.2490445872       -1.9616435019
 O         -2.1101955277        0.2517281304       -1.9179172340
 C         -1.0889819553       -0.6386809600       -1.6136457488
 O         -0.0831171244       -0.4994119221       -2.3327611854
 O         -2.7417139516       -2.3759549209        1.0838348361
 C         -0.2553068827       -2.5603582810       -0.1546628694
 C          0.5663088890       -2.0008488685        0.9816999681
 C          0.9657084118       -2.8054576923        2.0427815057
 C          1.7167158280       -2.2774768111        3.0782004252
 C          2.0727590187       -0.9412093615        3.0818007727
 C          1.6613138773       -0.1219713754        2.0344821324
 C          0.9272194004       -0.6615142226        0.9884283629
 H          0.6047152091       -0.0185232307        0.1864898302
 N          1.9544113453        1.2436508078        2.0502857584
 S          1.9555937253        2.2369311109        0.7125167231
 O          2.4567786739        3.4929631420        1.2308602389
 O          0.6474767502        2.2800704952        0.1094507303
 C          3.1764358278        1.5483851316       -0.3894315837
 C          2.8137460003        0.8820273440       -1.5410215170
 C          3.8146022139        0.3665875540       -2.3525778381
 C          5.1457344639        0.5167412277       -2.0004954883
 C          5.4927069117        1.1887340196       -0.8373373586
 C          4.5009341000        1.7107897700       -0.0253012110
 H          4.7273607248        2.2593603103        0.8744668369
 H          6.5289489075        1.3078694857       -0.5649387221
 H          5.9159114961        0.1102189521       -2.6368138481
 H          3.5364833648       -0.1525167143       -3.2556657050
 H          1.7726603588        0.7585434149       -1.7975008302
 H          2.5793501583        1.5567027592        2.7762560582
 H          2.6456690516       -0.5262697702        3.8965497656
 H          2.0221728178       -2.9112781494        3.8966996223
 H          0.6650519632       -3.8424778038        2.0650020204
 H         -0.8215430969       -3.4167766788        0.2467581325
 C          0.6060917105       -3.0769725482       -1.2977338364
 C          2.0293325828       -2.6617982160       -1.4996676469
 C          1.7169038135       -4.0511381048       -1.0368703945
 H          1.8534963073       -4.8695406544       -1.7272351193
 H          1.9394707937       -4.2958058918       -0.0099953884
 H          2.3660477273       -2.5115565422       -2.5131925441
 H          2.4606516821       -1.9688237088       -0.7934845261
 H          0.0218440797       -3.2368588500       -2.1980143200
