  62
        -98.94089006
 C         -0.2686471909       -1.8066596425       -0.1299355117
 C         -1.3936631154       -1.8652663506        0.7204582630
 C         -2.5306079890       -0.9916566376        0.3772904385
 C         -2.4349332809       -0.1962151710       -0.7031476441
 C         -3.4613813539        0.7648664025       -1.2449462176
 C         -4.0733086599        1.7297939697       -0.2165729938
 C         -5.5537794131        1.4580389893        0.0528359172
 H         -6.0112144550        2.3689654267        0.4454064326
 H         -6.0431672913        1.2290324460       -0.8960391018
 C         -5.8332253741        0.3355268509        1.0508347677
 H         -5.5628939765        0.6720673263        2.0543860073
 H         -6.9106757028        0.1539182333        1.0488881465
 C         -5.1143834736       -0.9889133766        0.7804938826
 H         -5.1090727044       -1.2157932571       -0.2844153800
 H         -5.6868052340       -1.7793197977        1.2710043380
 C         -3.6856350007       -1.0445803159        1.3405592565
 H         -3.5444636218       -1.9841461136        1.8849930946
 H         -3.5442731031       -0.2508028797        2.0822757313
 H         -3.9802085146        2.7457351383       -0.6046869130
 H         -3.5050492895        1.6880700514        0.7132969969
 H         -2.9461721287        1.3255960313       -2.0263201424
 H         -4.2535478568        0.1957187332       -1.7356863669
 O         -1.3309730044       -0.1784132840       -1.5024081045
 C         -0.2140192519       -0.9468443028       -1.2259621401
 O          0.7359060300       -0.7808432133       -2.0125964565
 O         -1.4488305772       -2.6195613637        1.7318780300
 C          0.9540364944       -2.6392206273        0.1994723385
 C          2.1545887773       -1.7547246451        0.4344008568
 C          3.4511411300       -2.1493001970        0.1249302973
 C          4.5195701005       -1.3057323353        0.3741761010
 C          4.3210079260       -0.0497992691        0.9182407595
 C          3.0279052769        0.3526107988        1.2331733749
 C          1.9640141510       -0.5046124914        1.0070715596
 H          0.9687919786       -0.1809538980        1.2732701326
 N          2.7757954799        1.6216767959        1.7791555282
 S          1.3998269479        2.4656213900        1.3667328626
 O          1.6939351575        3.8279665859        1.7656239238
 O          0.2365986991        1.8814388952        1.9898229352
 C          1.2293788591        2.4229498135       -0.4095179206
 C          2.3325097178        2.2844400084       -1.2264939679
 C          2.1585449546        2.3320401971       -2.5998949034
 C          0.8969903913        2.5383717237       -3.1320601742
 C         -0.1983110253        2.6906555276       -2.2984872991
 C         -0.0340807123        2.6264619718       -0.9251607132
 H         -0.8644290221        2.7159255971       -0.2417815459
 H         -1.1803019444        2.8515707603       -2.7142712616
 H          0.7644479548        2.5734517710       -4.2018914762
 H          3.0089742770        2.2031269992       -3.2497081477
 H          3.3091809139        2.1247425021       -0.8003032014
 H          3.5775299244        2.2308655976        1.8517918662
 H          5.1534426012        0.6128875676        1.1000016359
 H          5.5209131700       -1.6259655608        0.1301486019
 H          3.6237366690       -3.1184967720       -0.3135278542
 H          0.7162339401       -3.1500066388        1.1454262782
 C          1.1903588195       -3.6846208963       -0.8726466224
 C          1.7432792394       -5.0316553225       -0.5169003182
 C          0.3042410473       -4.8925159829       -0.9096990773
 H         -0.0112989644       -5.2725492590       -1.8696267339
 H         -0.4480559453       -4.9760987528       -0.1387241770
 H          2.4167464099       -5.5122276183       -1.2105624317
 H          1.9648784751       -5.2247528708        0.5220014459
 H          1.4773433523       -3.2450570542       -1.8211883339
