  62
        -98.94015977
 C         -2.4880749288       -1.2633907898       -0.0968375408
 C         -2.3178882682       -0.0321040915       -0.7744569704
 C         -3.5425366590        0.7525901311       -0.9916169163
 C         -4.7222082849        0.2686177999       -0.5619297039
 C         -6.0324441863        0.9942926665       -0.6562773140
 C         -6.2910381601        1.8347490747        0.6024196351
 C         -5.1096789501        2.7136806053        1.0136408640
 H         -5.4169025457        3.2794689584        1.8957936721
 H         -4.2761498727        2.0751832850        1.3157099341
 C         -4.6316828008        3.6846633639       -0.0749278759
 H         -4.4672648361        4.6650170245        0.3770554687
 H         -5.4068010681        3.8026830073       -0.8329225991
 C         -3.3202482851        3.2822262863       -0.7522887456
 H         -2.5608376539        3.0742287635        0.0063780088
 H         -2.9661355239        4.1317657436       -1.3425957985
 C         -3.3997953994        2.0736532406       -1.6934745280
 H         -4.2083082396        2.2188229488       -2.4129257647
 H         -2.4549181455        2.0195251617       -2.2428271604
 H         -7.1674031696        2.4606462380        0.4251692204
 H         -6.5174372022        1.1580055830        1.4294389146
 H         -6.0253503348        1.6325085090       -1.5375615262
 H         -6.8286587676        0.2553272940       -0.7589923691
 O         -4.8475980627       -0.9292322456        0.0644963174
 C         -3.7380915336       -1.7161399238        0.3254508866
 O         -3.9902626997       -2.7770700262        0.9313846652
 H          1.3808528372       -1.4804108412       -0.2375081093
 C          0.9958951145       -1.1086990509        0.6963042354
 C         -0.3159054719       -1.3538568923        1.0681155246
 C         -0.7730117015       -0.8513219620        2.2846397104
 C          0.0578858602       -0.1075540995        3.0985062804
 C          1.3597947917        0.1581018066        2.7109721691
 C          1.8294826746       -0.3460105804        1.5045472505
 N          3.1654201059       -0.1222100032        1.1169677105
 S          3.5048487041        0.3376978412       -0.4743611955
 O          2.8165152087        1.5668572036       -0.8007981105
 O          3.2869246365       -0.7838651833       -1.3506294024
 C          5.2558215385        0.6468414198       -0.3242459447
 C          5.7123396616        1.9463365587       -0.2133898245
 C          7.0730368121        2.1700512423       -0.0722814416
 C          7.9491497377        1.0957464393       -0.0419002428
 C          7.4761685335       -0.2033516780       -0.1549227641
 C          6.1171693070       -0.4334575754       -0.2975559620
 H          5.7047400449       -1.4237543118       -0.3976144683
 H          8.1608715246       -1.0357716258       -0.1333566401
 H          9.0075065363        1.2721758274        0.0678193997
 H          7.4434277649        3.1790236610        0.0123707768
 H          4.9945450170        2.7501122678       -0.2512757847
 H          3.6313054064        0.5189761690        1.7471352940
 H          2.0071466059        0.7508778662        3.3399083703
 H         -0.3116114236        0.2780751030        4.0369892529
 H         -1.7961332622       -1.0490547338        2.5766626381
 C         -1.2820338924       -2.1345994700        0.2102034427
 H         -1.6611118585       -2.9793975528        0.8038014745
 C         -0.6727151668       -2.6730440291       -1.0660941179
 C          0.1167539791       -3.9460027763       -1.0383939231
 C         -1.2402133244       -3.9190726405       -1.6736954468
 H         -1.3098474945       -3.9820679938       -2.7492861846
 H         -2.0594117440       -4.3944435953       -1.1536588996
 H          0.2208574396       -4.4471107054       -0.0878589554
 H          0.9840313260       -4.0246473645       -1.6765005696
 H         -0.3511080812       -1.8891875823       -1.7430825256
 O         -1.2033863690        0.3954113737       -1.1768224161
