  62
        -98.93878227
 C          1.8646071917        0.7137492100        0.8576792832
 C          2.1871107456       -0.6680839049        0.8216204493
 C          3.6063590704       -1.0039480964        0.6717756742
 C          4.5179416429       -0.0174787553        0.6017056815
 C          6.0070945497       -0.1931694140        0.4757496857
 C          6.4907794711       -0.4085548834       -0.9648149724
 C          6.1635602066       -1.7775386327       -1.5625704132
 H          6.7446638310       -1.8724596663       -2.4820566411
 H          6.5015172784       -2.5597005415       -0.8820651541
 C          4.6790011362       -1.9859649512       -1.8934399988
 H          4.1717105356       -1.0186948749       -1.9206192583
 H          4.5860199668       -2.4228534207       -2.8903046817
 C          3.9359842295       -2.9059069302       -0.9245442233
 H          2.8879339912       -2.9508507915       -1.2313768157
 H          4.3497640424       -3.9148576747       -0.9870946420
 C          3.9809212851       -2.4491579662        0.5394562382
 H          3.2509359329       -3.0341197474        1.1040569727
 H          4.9713775785       -2.6253641722        0.9586552439
 H          6.0671538547        0.3756907776       -1.5964959952
 H          7.5763373611       -0.2854210916       -0.9657190119
 H          6.4615369945        0.7234170912        0.8580406870
 H          6.3313931057       -1.0276441255        1.0982264682
 O          4.1748573724        1.2949022941        0.6593434764
 C          2.8465528196        1.7009578597        0.7601750417
 O          2.7068873999        2.9369435017        0.7562202347
 O          1.3229132774       -1.5797887582        0.9221555994
 C          0.3934899565        1.0545292841        1.0027471462
 C         -0.2837083902        1.2203898411       -0.3334351451
 C          0.2943571509        1.9538868819       -1.3640668313
 C         -0.3686458485        2.1088756911       -2.5680979127
 C         -1.6248939290        1.5602361169       -2.7583136144
 C         -2.2115606376        0.8260454842       -1.7346129416
 C         -1.5284719042        0.6447701980       -0.5402773782
 H         -1.9773845737        0.0521787341        0.2414413041
 N         -3.4813046580        0.2544082602       -1.8882747591
 S         -4.5493907987        0.2581237418       -0.5968555209
 O         -5.8569144317        0.1534723783       -1.2073545738
 O         -4.3339351810        1.3989332761        0.2612087650
 C         -4.1934704892       -1.2530113746        0.2726963003
 C         -3.9184561460       -1.2193130000        1.6252352956
 C         -3.6542392229       -2.4090366587        2.2852511261
 C         -3.6716874963       -3.6049833567        1.5846566273
 C         -3.9535366926       -3.6221331571        0.2269147487
 C         -4.2185762623       -2.4363249374       -0.4384479037
 H         -4.4442523231       -2.4092897108       -1.4914003209
 H         -3.9647131056       -4.5549842559       -0.3134727502
 H         -3.4623686375       -4.5286412612        2.1007775535
 H         -3.4323391149       -2.3970878846        3.3404054657
 H         -3.9083226764       -0.2666956169        2.1320080336
 H         -3.9409711794        0.4634050720       -2.7623816046
 H         -2.1475123712        1.6982878221       -3.6927155460
 H          0.0910189644        2.6780904475       -3.3622541039
 H          1.2604323548        2.4102171394       -1.2080855840
 H         -0.0508459464        0.1663603782        1.4808749607
 C          0.1298702899        2.2364031361        1.9255582541
 C         -0.2741625323        3.5923323459        1.4401617326
 C         -1.2693650945        2.7293509357        2.1531882622
 H         -1.5606140771        3.0012162332        3.1568921464
 H         -2.0677892717        2.2966833875        1.5668098216
 H          0.1381821074        4.4502241431        1.9488982205
 H         -0.3943381039        3.7379956866        0.3781968796
 H          0.7818680097        2.2174622122        2.7936733134
