  62
        -98.93896222
 C         -1.8323126851       -0.8882470412        0.4306849784
 C         -2.4611077884       -0.2823047087       -0.6813129139
 C         -3.5488322140        0.6688529015       -0.3829771550
 C         -3.8701730518        0.9283443913        0.8981209991
 C         -4.8929639178        1.8696473380        1.5000848848
 C         -5.9907036583        2.4867232325        0.6375397667
 C         -7.0258280845        1.4925861698        0.1121286939
 H         -7.6229781973        1.1353475246        0.9549490815
 H         -7.6952413419        2.0243645020       -0.5675545511
 C         -6.4606134799        0.2682964330       -0.6035902137
 H         -5.8672441598       -0.3242632816        0.0957188935
 H         -7.3033718150       -0.3534874312       -0.9175522047
 C         -5.6171261571        0.5663047080       -1.8416490602
 H         -5.4151426086       -0.3859660999       -2.3392725138
 H         -6.1865428722        1.1901717731       -2.5333126381
 C         -4.2619139884        1.2433743158       -1.5728833102
 H         -3.6140556165        1.0581964392       -2.4349125023
 H         -4.3701108078        2.3209540251       -1.4736698885
 H         -5.5538699680        3.0513684997       -0.1809375029
 H         -6.5165541290        3.2056512482        1.2718450112
 H         -5.3546280856        1.3182728926        2.3255025110
 H         -4.3161311351        2.6812318147        1.9577831110
 O         -3.2038006718        0.3464428207        1.9395578671
 C         -2.1841440132       -0.5669392037        1.7391542622
 O         -1.6719577653       -1.0062056180        2.7895614478
 H          0.3952436911        0.4471631441        0.7950370737
 C          0.8834450319       -0.0078393884       -0.0585715951
 C          0.4333664532       -1.2412828114       -0.5145109799
 C          1.0799424934       -1.8216443349       -1.5972659232
 C          2.1238361279       -1.1635092011       -2.2257740636
 C          2.5519361898        0.0746212530       -1.7852178201
 C          1.9267231951        0.6534988053       -0.6872966580
 N          2.3652981948        1.9019105264       -0.2163203281
 S          4.0122902798        2.1734796212       -0.1089210990
 O          4.1659685388        3.1486734877        0.9480938878
 O          4.5257543101        2.5612293104       -1.3992786225
 C          4.7207778420        0.6082313558        0.3732947191
 C          5.6571053489       -0.0017525541       -0.4363533552
 C          6.1745355962       -1.2296342888       -0.0557431014
 C          5.7454829529       -1.8248384098        1.1201472353
 C          4.8065556193       -1.1975678821        1.9250403813
 C          4.2877409674        0.0311241568        1.5507028560
 H          3.5589062646        0.5444198247        2.1578509679
 H          4.4728314884       -1.6612624337        2.8395618138
 H          6.1441638129       -2.7830725264        1.4134884259
 H          6.9060569599       -1.7187273099       -0.6784343566
 H          5.9590333520        0.4951056869       -1.3439178364
 H          1.8822285413        2.2251179529        0.6083014709
 H          3.3487824309        0.6079117580       -2.2776172561
 H          2.6082945345       -1.6201783086       -3.0750539229
 H          0.7598834051       -2.7848949579       -1.9581289185
 C         -0.7141730598       -1.8928220221        0.2195140851
 H         -0.3608339255       -2.1666372190        1.2245853987
 C         -1.2469645764       -3.1343801949       -0.4644992754
 C         -0.6066211006       -4.4663169824       -0.2178628135
 C         -1.9554868519       -4.1646982217        0.3608235041
 H         -2.8211876204       -4.6553748259       -0.0582042702
 H         -2.0302035142       -3.9829924061        1.4234765122
 H         -0.5477918627       -5.1698208762       -1.0345394115
 H          0.2361889286       -4.4991006998        0.4556852877
 H         -1.6417129031       -2.9277728675       -1.4524369208
 O         -2.1302345561       -0.5151848894       -1.8724855719
