  62
        -98.94128954
 C         -2.2705930106       -0.6649400878       -0.3133989336
 C         -3.5029401800       -0.9532803424        0.3244964765
 C         -4.3045136423        0.2057403651        0.7364055577
 C         -3.8195965781        1.4444566818        0.5339002429
 C         -4.5479355995        2.7142621576        0.8646850928
 C         -5.3799302919        3.2062569042       -0.3281136582
 C         -6.2582995775        2.1248192998       -0.9573568161
 H         -6.8208598796        2.5939888236       -1.7673650918
 H         -5.6177898357        1.3639785960       -1.4091325613
 C         -7.2331149152        1.4511621663        0.0184741187
 H         -7.3541000425        2.0704057767        0.9079921150
 H         -8.2118314302        1.3763268868       -0.4600456237
 C         -6.8331585475        0.0353719305        0.4377244613
 H         -6.6191203132       -0.5632028976       -0.4512144456
 H         -7.6867651169       -0.4235442435        0.9435066544
 C         -5.6321917591       -0.0650054777        1.3867088223
 H         -5.7833220111        0.5950101506        2.2433755627
 H         -5.5816259401       -1.0949819199        1.7518128889
 H         -6.0048403779        4.0361135030        0.0068667857
 H         -4.6974987986        3.5819792048       -1.0939670035
 H         -5.1923900310        2.5429659935        1.7247935374
 H         -3.8099269845        3.4761463456        1.1215980665
 O         -2.6151344747        1.6822145569       -0.0443154268
 C         -1.8128589201        0.6409531089       -0.4894940341
 O         -0.7468410913        1.0127578347       -1.0169132453
 H          1.1420522046       -0.9483963401       -1.3122541396
 C          1.0467082081       -1.3496686205       -0.3157686903
 C         -0.1708039066       -1.8566731402        0.1080013959
 C         -0.2752903179       -2.3411098719        1.4093690888
 C          0.8133721114       -2.3183728285        2.2597086832
 C          2.0282367810       -1.8087349641        1.8340790236
 C          2.1395570958       -1.3143267244        0.5421336654
 N          3.3712614679       -0.7994404290        0.0879404520
 S          4.1953587686        0.2589589133        1.1153396663
 O          4.8264832933       -0.5149052688        2.1556932067
 O          3.3185784466        1.3188016339        1.5633573503
 C          5.4362359936        0.8963284045        0.0068231388
 C          6.6291301629        0.2115718134       -0.1256700428
 C          7.5822667154        0.6920219316       -1.0094763534
 C          7.3275723146        1.8415643626       -1.7423923740
 C          6.1257027633        2.5185008447       -1.5979633599
 C          5.1674875768        2.0427707544       -0.7166088438
 H          4.2228090392        2.5418574173       -0.5668359378
 H          5.9308154387        3.4132963089       -2.1670856207
 H          8.0708297195        2.2148808834       -2.4290714046
 H          8.5186511899        0.1701753622       -1.1233420545
 H          6.7845112029       -0.6718436753        0.4710740969
 H          3.2710533788       -0.3741518589       -0.8248617725
 H          2.8809408917       -1.7711349702        2.4921565331
 H          0.7180933695       -2.6967458850        3.2666344464
 H         -1.2286516409       -2.7222065509        1.7488873701
 C         -1.4042254237       -1.8314299266       -0.7601258561
 H         -1.9938328577       -2.7314849706       -0.5389935737
 C         -1.1161563079       -1.7891919745       -2.2456329616
 C         -0.5826168561       -3.0140213694       -2.9248579667
 C         -1.9892877530       -2.5668436491       -3.1823770360
 H         -2.2263820776       -2.1343424525       -4.1428627906
 H         -2.7961864613       -3.1414524556       -2.7518094200
 H          0.1473744024       -2.8927026389       -3.7104106484
 H         -0.4327853046       -3.8927661897       -2.3161619481
 H         -0.7642207643       -0.8229783725       -2.5865766962
 O         -3.9127628216       -2.1257045953        0.5370276947
