  62
        -98.94214565
 C         -0.3418700402       -1.8177465961       -0.5351818136
 C          0.2858482210       -1.8671238840        0.7301411668
 C          1.7552900331       -1.7054274374        0.7478579322
 C          2.4119579724       -1.5296525073       -0.4141912387
 C          3.8898177289       -1.4110966868       -0.7312684281
 C          4.9209267861       -1.5041009126        0.3885415627
 C          5.0372559343       -0.2391035914        1.2456441179
 H          5.5844699436       -0.4800197098        2.1587700442
 H          5.6262435909        0.4944978348        0.6896974072
 C          3.7172971480        0.4337436193        1.6160173141
 H          3.9414947808        1.4005666950        2.0753322876
 H          3.1445596973        0.6430576772        0.7118625806
 C          2.8290050421       -0.3368245462        2.5881810982
 H          3.3430004980       -0.4512534087        3.5457439435
 H          1.9292143523        0.2634518669        2.7562063367
 C          2.3867847737       -1.7252927197        2.1109447098
 H          1.6101060268       -2.0814986123        2.7951826195
 H          3.2129506364       -2.4310763353        2.1582517542
 H          4.7179909213       -2.3794186513        0.9994554020
 H          5.8917924961       -1.6700733943       -0.0852670435
 H          4.0266544944       -0.4685266113       -1.2712720683
 H          4.0876589273       -2.2092722110       -1.4546600270
 O          1.7531933895       -1.4641610522       -1.6112193666
 C          0.3784672824       -1.5875729422       -1.7039203799
 O         -0.0719524190       -1.4784602834       -2.8619094348
 O         -0.3454221943       -2.0647835248        1.8012228128
 C         -1.8441268379       -1.9975498334       -0.6507271461
 C         -2.5685733876       -0.9644598190        0.1780331694
 C         -3.7004423127       -1.2491573772        0.9314086335
 C         -4.3203639887       -0.2528753663        1.6655560166
 C         -3.8210721892        1.0364336718        1.6762438159
 C         -2.6940339324        1.3339800060        0.9186431209
 C         -2.0954077882        0.3411827015        0.1612424596
 H         -1.2260369592        0.5780226318       -0.4339136311
 N         -2.1595274219        2.6319593377        0.8874255251
 S         -0.4955113969        2.8301296693        0.9209322448
 O          0.1553527125        1.7860406343        1.6734608109
 O         -0.3097080980        4.1803232730        1.4124493825
 C         -0.0061341088        2.7782181335       -0.7887236911
 C          0.9207939913        1.8429170955       -1.2012440084
 C          1.3028803084        1.8125565129       -2.5322682183
 C          0.7526882789        2.7203157835       -3.4239559030
 C         -0.1735332057        3.6588709588       -2.9939771760
 C         -0.5596736718        3.6913966877       -1.6636191288
 H         -1.2738581603        4.4057262438       -1.2894494882
 H         -0.5974027659        4.3613283329       -3.6934140992
 H          1.0482419631        2.6904176203       -4.4607745690
 H          2.0087894173        1.0689606283       -2.8676401293
 H          1.3098522748        1.1455682566       -0.4740404997
 H         -2.6220230285        3.2934767848        1.4945294288
 H         -4.2936379522        1.8072736517        2.2660907111
 H         -5.1973348920       -0.4874754296        2.2497787198
 H         -4.0938053155       -2.2523185298        0.9505201217
 H         -2.0896759778       -1.8173851593       -1.7082792016
 C         -2.2228645570       -3.4222733525       -0.2989920671
 C         -3.3930100140       -4.0836042332       -0.9614815087
 C         -1.9978513561       -4.4995772258       -1.3157017393
 H         -1.6419304097       -5.4613928163       -0.9781739015
 H         -1.5995933397       -4.1985894261       -2.2739337995
 H         -3.9965659581       -4.7654962036       -0.3814390327
 H         -3.9479620258       -3.5088338309       -1.6873725322
 H         -2.0153880844       -3.6618808467        0.7378078123
