  62
        -98.93886645
 C         -2.5392277522       -1.1935716539        0.3366970777
 C         -2.6587323078       -0.4758155494       -0.8760181684
 C         -3.4047246344        0.7957773651       -0.8124931828
 C         -3.8911217361        1.2113144234        0.3695495403
 C         -4.6214418483        2.4924433315        0.6645443305
 C         -3.6403589050        3.5834928934        1.1264658035
 C         -3.0111101804        4.4041494978        0.0013273795
 H         -3.7710480831        5.0552686413       -0.4358281321
 H         -2.2495669065        5.0446213911        0.4525511176
 C         -2.3620758240        3.5898227457       -1.1210592628
 H         -1.6554987951        4.2401137171       -1.6410438088
 H         -1.7800445110        2.7688722970       -0.6959338970
 C         -3.3781036616        3.0445102802       -2.1358448517
 H         -3.0578529015        3.3118405824       -3.1449425543
 H         -4.3388477807        3.5335681338       -1.9758656559
 C         -3.5627721079        1.5206901245       -2.1211583418
 H         -2.8203438848        1.0602243233       -2.7809005494
 H         -4.5459521615        1.2768538778       -2.5375918570
 H         -2.8530830521        3.1017007796        1.7126978909
 H         -4.1673894704        4.2708200633        1.7913197957
 H         -5.1941553460        2.8180584973       -0.1984379998
 H         -5.3102639872        2.2755217118        1.4836320824
 O         -3.7195969216        0.5051124393        1.5222051689
 C         -3.0400575587       -0.6982654817        1.5394220509
 O         -2.9428405530       -1.2202518900        2.6697766318
 O         -2.1667568122       -0.8712833645       -1.9647811318
 C         -1.7847356701       -2.5122302150        0.3761598738
 C         -0.3375784541       -2.2580455129        0.0281480578
 C          0.3363517694       -2.8908622012       -1.0065941852
 C          1.6548766973       -2.5684869897       -1.2816841962
 C          2.3286586109       -1.6227931686       -0.5312958341
 C          1.6652312738       -0.9888660486        0.5118180661
 C          0.3461091502       -1.3123234713        0.7836844480
 H         -0.1742181859       -0.8137898741        1.5936590012
 N          2.3458607718       -0.0316198143        1.2899014660
 S          3.0171642501        1.2760674775        0.4715816874
 O          3.0844342521        2.3400969860        1.4502287267
 O          2.2958523785        1.5664580895       -0.7459769600
 C          4.6690460076        0.7304445247        0.0942355748
 C          5.4827650394        0.3492745643        1.1432489219
 C          6.7727564217       -0.0755795177        0.8685653057
 C          7.2251347832       -0.1092579694       -0.4422955241
 C          6.3967006842        0.2797300597       -1.4837837577
 C          5.1045102571        0.7048537598       -1.2160307757
 H          4.4219066958        1.0106785200       -1.9929090714
 H          6.7499913206        0.2529087666       -2.5020677639
 H          8.2295450917       -0.4405965119       -0.6535375541
 H          7.4199606795       -0.3787393467        1.6756767381
 H          5.0926201756        0.3945126185        2.1463095592
 H          1.8026361693        0.2993160866        2.0749922290
 H          3.3536637936       -1.3678353357       -0.7457895331
 H          2.1647013895       -3.0615736480       -2.0951865339
 H         -0.1737170093       -3.6252631225       -1.6074267563
 H         -1.8257461714       -2.8508822363        1.4216949517
 C         -2.4583435868       -3.5467330108       -0.4987195659
 C         -2.2717286260       -5.0049572861       -0.2096837438
 C         -3.5892995534       -4.3481825008        0.0696043459
 H         -4.4288230434       -4.5790090032       -0.5687112685
 H         -3.8627005909       -4.1616296418        1.0982522613
 H         -2.2087184544       -5.6916468148       -1.0400358410
 H         -1.6507841660       -5.2714611346        0.6321124765
 H         -2.5393021116       -3.2329057075       -1.5324789842
