  62
        -98.94453413
 C         -1.4529496644       -0.9570355042       -0.0157225600
 C         -2.7475236358       -1.3607094643        0.3890338897
 C         -3.6890770492       -0.2768452012        0.7007189988
 C         -3.2722196610        1.0001298891        0.6198283158
 C         -4.1391110004        2.2013469326        0.8609130988
 C         -4.7931389564        2.6836282790       -0.4414704389
 C         -5.4703872843        1.5706216552       -1.2410822356
 H         -5.9233000731        2.0312673626       -2.1217911891
 H         -4.7085488484        0.8742928319       -1.5990819696
 C         -6.5413394113        0.7924008208       -0.4639537365
 H         -6.8550336265        1.3648800068        0.4097203526
 H         -7.4185356362        0.6702551747       -1.1029018924
 C         -6.1127103896       -0.6087690734       -0.0240626571
 H         -5.7102889555       -1.1546703803       -0.8812350859
 H         -7.0023724946       -1.1454063246        0.3164035852
 C         -5.0818534251       -0.6654698524        1.1104420217
 H         -5.4230440279       -0.0539245235        1.9482173586
 H         -5.0161792678       -1.7041112570        1.4476664661
 H         -5.5258253268        3.4543941593       -0.1954831450
 H         -4.0220878809        3.1350080110       -1.0698591607
 H         -4.9045876928        1.9507969094        1.5926621115
 H         -3.5140081983        3.0011760631        1.2608949225
 O         -2.0113143061        1.3479287257        0.2584486856
 C         -1.0707861465        0.3835995145       -0.0780206831
 O          0.0376986243        0.8418208142       -0.4050622104
 H          2.1903333451       -1.2198752918       -0.8305507210
 C          1.9881589177       -1.4636670344        0.1980662529
 C          0.7341849387       -1.9017438807        0.5915764523
 C          0.5223712881       -2.2084392554        1.9342064003
 C          1.5404932664       -2.0790212652        2.8579248047
 C          2.7888271093       -1.6281595191        2.4642718309
 C          3.0094174683       -1.3185616311        1.1278453564
 N          4.2697822156       -0.8762483908        0.7017621277
 S          4.4390412303        0.2426092122       -0.5225958486
 O          4.1597581773       -0.3659382196       -1.7995146222
 O          5.7926010454        0.7339832331       -0.3542813040
 C          3.2994519702        1.5762257025       -0.2012527760
 C          3.1157460949        2.0143525573        1.0940614315
 C          2.2745697295        3.0901288203        1.3230186685
 C          1.6435471370        3.7136534553        0.2588912093
 C          1.8444475171        3.2662573166       -1.0358508489
 C          2.6780773461        2.1859083464       -1.2697613106
 H          2.8460546743        1.7949881665       -2.2607097494
 H          1.3443979030        3.7456691232       -1.8623554383
 H          0.9831230720        4.5472887857        0.4405652433
 H          2.1088836525        3.4352027745        2.3314995952
 H          3.6165168191        1.5158995962        1.9084050063
 H          4.9458671308       -0.7291205163        1.4364345359
 H          3.5864192027       -1.5210342268        3.1837267661
 H          1.3622320250       -2.3242870728        3.8939763909
 H         -0.4577162809       -2.5470274540        2.2414622793
 C         -0.4260855431       -2.0210468191       -0.3636522110
 H         -0.9262920923       -2.9830100963       -0.1820972561
 C         -0.0300629432       -1.9453475803       -1.8222602226
 C          0.6002613572       -3.1339925079       -2.4819984166
 C         -0.8008093346       -2.7357377879       -2.8347431581
 H         -0.9843119782       -2.2941792251       -3.8028833365
 H         -1.6129035116       -3.3501648614       -2.4740554352
 H          0.7398471321       -4.0204601137       -1.8817855753
 H          1.3850976747       -2.9653270961       -3.2038833346
 H          0.3134121782       -0.9605352625       -2.1186489235
 O         -3.0978534853       -2.5677456195        0.4882408996
