  62
        -98.93937732
 C         -1.8035392102       -1.5317598254        0.2025860812
 C         -1.6123423048       -0.2197264824       -0.2866774624
 C         -2.6565557129        0.7708240570        0.0484645323
 C         -3.7174041094        0.3764677068        0.7768018922
 C         -4.9121169438        1.1889521648        1.2015605828
 C         -5.9011126005        1.4391761442        0.0522052414
 C         -5.2591165430        1.8565566304       -1.2680408000
 H         -6.0508319796        1.9054092324       -2.0204266075
 H         -4.5585597316        1.0822390235       -1.5855630848
 C         -4.5491138398        3.2081742480       -1.2479299192
 H         -5.2606233744        3.9822666057       -0.9519633570
 H         -4.2339749507        3.4226249274       -2.2723460889
 C         -3.3180853612        3.3034548068       -0.3434199964
 H         -3.6035951723        3.4273932716        0.6976564858
 H         -2.7776648256        4.2111004781       -0.6272575471
 C         -2.3354233571        2.1456845786       -0.4853859538
 H         -1.3900326992        2.4241639081       -0.0058036118
 H         -2.0925911300        2.0089215112       -1.5451067580
 H         -6.6135136773        2.2020874821        0.3710131455
 H         -6.4552734256        0.5139603299       -0.1245668906
 H         -5.4212842627        0.6138671376        1.9782306730
 H         -4.5886486589        2.1265733546        1.6436663783
 O         -3.8625238917       -0.9073760899        1.2172598697
 C         -2.9188435364       -1.8812407220        0.9623612379
 O         -3.1766450401       -2.9980421756        1.4565160671
 H          1.5946062866       -1.9877194199       -1.3732222582
 C          1.6499656843       -1.8358144907       -0.3071798101
 C          0.5581389119       -2.1272135874        0.4927686736
 C          0.6605274179       -1.9099890100        1.8646974918
 C          1.8245077914       -1.4123120641        2.4175768646
 C          2.9093183158       -1.1082566466        1.6129230312
 C          2.8145948735       -1.3163255774        0.2442618342
 N          3.9034947981       -0.9933568455       -0.5848463449
 S          4.6459099875        0.4899163295       -0.3612029443
 O          5.2962804693        0.7755991807       -1.6208591535
 O          5.5113024396        0.4222662978        0.7905872137
 C          3.3309640449        1.6577388986       -0.0641911691
 C          3.1884272868        2.2298873131        1.1832298997
 C          2.1530393610        3.1260104084        1.3934446940
 C          1.2837737827        3.4318401234        0.3580314823
 C          1.4396705451        2.8477611745       -0.8894526492
 C          2.4711635219        1.9496979544       -1.1038416118
 H          2.6208969377        1.4831038946       -2.0638660074
 H          0.7574199517        3.0788713419       -1.6911740367
 H          0.4804935019        4.1332836151        0.5239092448
 H          2.0266007014        3.5819001422        2.3624659801
 H          3.8903625615        1.9709102951        1.9590643403
 H          3.7239539147       -1.1543107383       -1.5653933781
 H          3.8237880712       -0.7135433604        2.0245616473
 H          1.8885215749       -1.2526338357        3.4833086478
 H         -0.1944503622       -2.1295332978        2.4902213637
 C         -0.7607486411       -2.6041612533       -0.0632448598
 H         -1.0789652790       -3.4877272206        0.5071306441
 C         -0.7247439295       -2.9596465383       -1.5343107843
 C         -0.1549539503       -4.2746435473       -1.9720465962
 C         -1.6327722526       -4.0362146599       -2.0442114638
 H         -2.0887259950       -3.9093553566       -3.0147584900
 H         -2.2696359861       -4.5313423222       -1.3256485419
 H          0.2145855836       -4.9382270321       -1.2049945224
 H          0.4025575228       -4.3163940913       -2.8956534483
 H         -0.5727837121       -2.0971795929       -2.1728482480
 O         -0.6199009268        0.1236844618       -0.9801793315
