  62
        -98.93624466
 C         -1.6653467796       -1.5060201108        0.5521425210
 C         -1.6731758200       -0.2794748508        1.2613810811
 C         -2.8632988204        0.5717498586        1.1080406214
 C         -3.8763610704        0.1386420482        0.3380812917
 C         -5.1498137209        0.8700446676        0.0165964720
 C         -5.0170892116        1.6303645677       -1.3136407880
 C         -4.4160725722        3.0304217480       -1.1951525581
 H         -4.2502683026        3.3990834881       -2.2099240482
 H         -5.1427161723        3.6934389177       -0.7209152679
 C         -3.0975422920        3.1137485186       -0.4207084185
 H         -2.4565066917        2.2764760389       -0.7033521187
 H         -2.5902426025        4.0309025188       -0.7260960386
 C         -3.2912116716        3.1423292985        1.1034771116
 H         -4.3397281016        3.3463205580        1.3208124619
 H         -2.7219888119        3.9742471287        1.5236280114
 C         -2.8510894608        1.8753603686        1.8581416014
 H         -1.8175383808        1.9896985391        2.2004467912
 H         -3.4644740605        1.7662815583        2.7586310416
 H         -4.4072770515        1.0224170180       -1.9868166682
 H         -6.0070936517        1.7236282973       -1.7645652377
 H         -5.9283279205        0.1120081673       -0.0915132078
 H         -5.4220373410        1.5404153175        0.8268268921
 O         -3.8389840101       -1.0527109318       -0.3141779184
 C         -2.7371389597       -1.8955179213       -0.2521612887
 O         -2.8569667694       -2.9248594913       -0.9397381287
 O         -0.7170289200        0.0901612696        1.9962961408
 C         -0.4165128092       -2.3586105802        0.6941982707
 C          0.5847575303       -1.9593594198       -0.3594781296
 C          0.2573553300       -1.9976680999       -1.7124572195
 C          1.1788652696       -1.6062415794       -2.6654260197
 C          2.4304058594       -1.1479734889       -2.2897553300
 C          2.7623172898       -1.0942849888       -0.9417844501
 C          1.8432302302       -1.5120984292        0.0124894801
 H          2.1156160405       -1.4627194491        1.0558287000
 N          4.0238853397       -0.6315475682       -0.5292261004
 S          4.1151928395        0.5390892418        0.6681352096
 O          5.4780284192        1.0192061824        0.5942552792
 O          3.7065984000       -0.0177625084        1.9308892497
 C          2.9982945187        1.8183373513        0.1246294499
 C          1.6709569088        1.7956772107        0.5013917802
 C          0.8205579283        2.7675670603       -0.0037943095
 C          1.3029570276        3.7354995106       -0.8697234996
 C          2.6409527575        3.7460555012       -1.2351120800
 C          3.4960814581        2.7770310216       -0.7380694502
 H          4.5447028780        2.7532690821       -0.9876071905
 H          3.0167479970        4.5025922714       -1.9050310301
 H          0.6324501172        4.4854753903       -1.2588088594
 H         -0.2178031616        2.7516836699        0.2866044507
 H          1.3040620694        1.0389118605        1.1773601503
 H          4.6405452194       -0.3911010979       -1.2926754906
 H          3.1455660391       -0.8339090485       -3.0347665002
 H          0.9175193293       -1.6483107195       -3.7120027896
 H         -0.7251561699       -2.3394164503       -2.0024984492
 H          0.0082274609       -2.0753903101        1.6708927006
 C         -0.6937778485       -3.8540690504        0.7398944407
 C         -0.2091643384       -4.8228629501       -0.2930048794
 C          0.4241756820       -4.8011572499        1.0635007704
 H          0.2332701725       -5.6182737800        1.7426357404
 H          1.4166412518       -4.3821944094        1.1450862102
 H         -0.8615788581       -5.6434748304       -0.5496439093
 H          0.3621679813       -4.4451340798       -1.1259505896
 H         -1.6588179383       -4.0751310408        1.1837184810
