  62
        -98.94450123
 C          2.6295278299        1.1742159591        0.1588473200
 C          2.5841047697        0.2405913389       -0.9048918299
 C          3.3119777496       -1.0188744512       -0.6870144297
 C          3.9798758396       -1.2122996311        0.4639369402
 C          4.7085287695       -2.4697975111        0.8368311903
 C          3.7932950794       -3.4353539809        1.6027248806
 C          2.4379867494       -3.6684354408        0.9340986707
 H          1.8939692393       -4.3927003606        1.5444537009
 H          1.8594852395       -2.7411553607        0.9532645307
 C          2.5206243791       -4.1808052910       -0.5104975292
 H          1.7990900490       -4.9910427709       -0.6348501490
 H          3.5116406591       -4.5944618612       -0.7019354692
 C          2.1946849192       -3.1316178511       -1.5753515593
 H          1.2428769893       -2.6490989110       -1.3326289693
 H          2.0623124390       -3.6472458913       -2.5307257492
 C          3.2562795393       -2.0437120313       -1.7846630196
 H          4.2336636492       -2.5079561715       -1.9305064096
 H          2.9958901793       -1.4964594714       -2.6953964496
 H          4.3131477993       -4.3886802109        1.7135215507
 H          3.6148894596       -3.0264777607        2.5998101205
 H          5.0842893994       -2.9476031913       -0.0656729996
 H          5.5523564596       -2.2012853211        1.4745159402
 O          4.0265517699       -0.2831429909        1.4513004001
 C          3.3396255000        0.9115553592        1.3354403500
 O          3.4445550702        1.6576428393        2.3289656198
 H          0.0202837498        1.4266808892       -1.5378036098
 C         -0.3917371401        1.6436290694       -0.5638907198
 C          0.4171145801        2.2153367894        0.4079884900
 C         -0.1222437797        2.4460808997        1.6688339800
 C         -1.4352036298        2.1091779699        1.9467305002
 C         -2.2325688799        1.5238759599        0.9788629104
 C         -1.6990490201        1.2809777796       -0.2795094496
 N         -2.4924229403        0.6433031096       -1.2585497995
 S         -2.9635577004       -0.9254770603       -0.8652896792
 O         -2.0125318204       -1.5584454403        0.0207710508
 O         -3.2069429806       -1.5868308705       -2.1290838390
 C         -4.5174135103       -0.6905193600       -0.0278183591
 C         -4.6894884303       -1.1709182598        1.2552933310
 C         -5.9095786102       -0.9776080995        1.8847386711
 C         -6.9295704002       -0.3109895995        1.2232775611
 C         -6.7410361302        0.1637001403       -0.0664544590
 C         -5.5246537703       -0.0276928099       -0.7018733191
 H         -5.3361587803        0.3215924499       -1.7032134091
 H         -7.5366156602        0.6817333704       -0.5772403490
 H         -7.8768879901       -0.1600870092        1.7163397312
 H         -6.0576301001       -1.3460213193        2.8871476312
 H         -3.8645358203       -1.6761262698        1.7318927910
 H         -2.0466389403        0.6343625494       -2.1664642795
 H         -3.2519121399        1.2458477400        1.1926559205
 H         -1.8395746796        2.2960686401        2.9298815802
 H          0.5068168104        2.8708782197        2.4380945399
 C          1.8748688101        2.4971831692        0.1334145599
 H          2.2699374803        3.0802450092        0.9755420497
 C          2.0914415801        3.2873251289       -1.1408741903
 C          1.7605673303        4.7485238690       -1.1506180705
 C          3.1908476302        4.3033789388       -1.1918608805
 H          3.7426014602        4.4177776586       -2.1128291406
 H          3.7926762104        4.4338643188       -0.3041749806
 H          1.3918615805        5.1821351092       -0.2333765905
 H          1.3279150303        5.1725663289       -2.0436640305
 H          1.9034854200        2.7206499088       -2.0428554302
 O          1.9774966896        0.4256169888       -1.9948392498
