  62
        -98.94661411
 C          1.1677787996        1.3637068715        0.2485588211
 C          1.3672303601        0.3282506718       -0.6964925592
 C          2.3412980305       -0.7067145179       -0.3181735094
 C          2.9110584703       -0.6713617180        0.8991399007
 C          3.9565442406       -1.6301694177        1.3885727605
 C          5.3685571005       -1.1089698571        1.0850633209
 C          5.5603910305       -0.6480223466       -0.3600470289
 H          4.9397092701        0.2328412532       -0.5393811487
 H          6.6009943204       -0.3330502861       -0.4644868187
 C          5.2416363511       -1.7151693064       -1.4166123293
 H          5.2446175814       -2.7041889065       -0.9571048896
 H          6.0314924312       -1.7068729458       -2.1707299692
 C          3.9186134411       -1.5027099967       -2.1553411694
 H          3.8991856615       -2.1762790364       -3.0162477296
 H          3.8744593507       -0.4805508866       -2.5397585791
 C          2.6492436111       -1.7684997174       -1.3357385397
 H          1.8007282512       -1.7784522676       -2.0255171298
 H          2.7200013014       -2.7491667676       -0.8629532100
 H          5.5748169300       -0.2621394172        1.7437208812
 H          6.0854603508       -1.8993884969        1.3146872208
 H          3.8462523705       -1.7405327581        2.4687285105
 H          3.8102174311       -2.5986013277        0.9142115202
 O          2.6249076498        0.2851189016        1.8172789609
 C          1.7799529994        1.3340844913        1.5068285912
 O          1.6489087589        2.1708329410        2.4220751114
 O          0.7834914803        0.2511730919       -1.8110918593
 C          0.2796523691        2.5738291012       -0.0065089987
 C         -1.1729179908        2.2279948705        0.2100677310
 C         -1.8958457312        2.7920424299        1.2543990711
 C         -3.2188575110        2.4432325193        1.4679124908
 C         -3.8445888705        1.5184362993        0.6503966604
 C         -3.1247694102        0.9431744999       -0.3882164197
 C         -1.8057019303        1.3057300805       -0.6115493094
 H         -1.2486348200        0.8420318210       -1.4122265094
 N         -3.7364912396       -0.0509731701       -1.1900886701
 S         -3.9558575292       -1.5156270804       -0.4072070805
 O         -4.3781155886       -2.4513874603       -1.4237596209
 O         -4.8642905994       -1.3141397711        0.6926359594
 C         -2.3466354291       -1.9759746700        0.2141939295
 C         -1.5970366386       -2.8982346794       -0.4871798206
 C         -0.3401155185       -3.2391244291       -0.0160575406
 C          0.1522759411       -2.6385086192        1.1318237297
 C         -0.6045438994       -1.6994208697        1.8145670299
 C         -1.8693882995       -1.3666412901        1.3579195398
 H         -2.4883733798       -0.6533030005        1.8775150999
 H         -0.2114250097       -1.2199704899        2.6978254901
 H          1.1307507111       -2.9013455589        1.5013298198
 H          0.2519649219       -3.9675503287       -0.5461514007
 H         -2.0168913683       -3.3401600593       -1.3766367308
 H         -3.2255823795       -0.2210463696       -2.0465228800
 H         -4.8641117704        1.2119923888        0.8185437802
 H         -3.7669212113        2.8914161288        2.2828139408
 H         -1.4078022815        3.4957353799        1.9131059714
 H          0.5634928187        3.3131243811        0.7541231816
 C          0.5010267691        3.1878238717       -1.3755159285
 C          0.1075825385        4.6149486416       -1.6034489481
 C          1.5567178387        4.2363642322       -1.5462391080
 H          2.1311081088        4.2455701227       -2.4604873279
 H          2.1243649384        4.5224434321       -0.6724390178
 H         -0.3162162515        4.8863627817       -2.5580914681
 H         -0.3065132418        5.1595988212       -0.7683979880
 H          0.3603004095        2.4905705919       -2.1905645087
