  62
        -98.93912059
 C         -2.4656003633       -1.0423518586        0.3801223520
 C         -2.6159260133        0.1369322240        1.1559634863
 C         -3.8291072096        0.9282985884        0.9161041988
 C         -4.7246840601        0.4957479932        0.0101408892
 C         -5.9786200367        1.2246410229       -0.3752243142
 C         -5.7321717476        2.1646762910       -1.5634768552
 C         -4.5081953333        3.0649907744       -1.3952514944
 H         -3.6075235801        2.4463642119       -1.3898408538
 H         -4.4518509465        3.7058117944       -2.2778140812
 C         -4.5301373738        3.9363623598       -0.1316175965
 H         -4.2253853570        4.9501118025       -0.3996580605
 H         -5.5461431623        3.9961518700        0.2601178718
 C         -3.5874662011        3.4679482687        0.9787168629
 H         -2.5848069711        3.3147662012        0.5705635856
 H         -3.5175087030        4.2642979404        1.7246723518
 C         -4.0069713011        2.1889968875        1.7144901056
 H         -5.0387689813        2.2840855894        2.0591720931
 H         -3.3599765374        2.0823359062        2.5902887096
 H         -5.5895064946        1.5581590771       -2.4606528020
 H         -6.6219556078        2.7803890661       -1.7065140695
 H         -6.7316791047        0.4869117081       -0.6568345084
 H         -6.3401244571        1.7906764983        0.4810186318
 O         -4.5610610190       -0.6490980577       -0.6963372047
 C         -3.4316758156       -1.4417928391       -0.5442087613
 O         -3.4351488217       -2.4512052823       -1.2740524942
 O         -1.7750441383        0.5068787576        2.0203808095
 C         -1.2021545977       -1.8567042964        0.6034624240
 C         -0.2082645362       -1.6239846111       -0.5100012379
 C         -0.3514869713       -2.2166651394       -1.7606531622
 C          0.5859146472       -1.9906731741       -2.7517923619
 C          1.6889724235       -1.1902136221       -2.5135506458
 C          1.8342825900       -0.5824711326       -1.2718324242
 C          0.8831264202       -0.7964756315       -0.2840802236
 H          1.0039652539       -0.3111281720        0.6741916164
 N          2.9291111979        0.2558337940       -1.0084655316
 S          3.5843492645        0.2550270319        0.5480544479
 O          3.6314084022       -1.0947889224        1.0632321782
 O          2.8806485191        1.2237025132        1.3504317438
 C          5.2343838705        0.8404969683        0.2079364626
 C          5.4497724007        2.2009469104        0.0932019505
 C          6.7262852457        2.6544163541       -0.1991877988
 C          7.7600265556        1.7457144111       -0.3715197068
 C          7.5290524705        0.3835690559       -0.2511637611
 C          6.2545294828       -0.0768713787        0.0399199325
 H          6.0296322080       -1.1253190870        0.1522700888
 H          8.3352972803       -0.3201430100       -0.3816562526
 H          8.7526572325        2.1018038852       -0.5976207375
 H          6.9101637950        3.7127479743       -0.2902981609
 H          4.6176653364        2.8686438338        0.2455039659
 H          3.6449297541        0.2048911622       -1.7204002391
 H          2.4272628547       -1.0286205446       -3.2843716248
 H          0.4624012951       -2.4548290196       -3.7186838440
 H         -1.2133179713       -2.8352428813       -1.9540665123
 H         -0.7605676621       -1.4495951524        1.5240569509
 C         -1.4670279238       -3.3342444028        0.8157343537
 C         -0.3876619943       -4.1765041062        1.4246599561
 C         -1.6230841277       -3.8568782475        2.2105520218
 H         -2.3403196244       -4.6441693161        2.3879056522
 H         -1.5421442411       -3.1482852455        3.0222777922
 H         -0.2547388049       -5.1845891513        1.0632647759
 H          0.5331155091       -3.6825584556        1.6997532956
 H         -2.0841397604       -3.7805508165        0.0472183582
