  62
        -98.93287853
 C         -2.2652055669       -1.0106832935        0.0987724709
 C         -3.0595586960       -0.3128614831        1.0456014035
 C         -3.9614800610        0.7183101991        0.5178371012
 C         -3.9837668354        0.9633785740       -0.8040980549
 C         -4.7910684545        2.0171998102       -1.5153123554
 C         -6.3223940245        1.8549739262       -1.4665638703
 C         -7.0034458309        2.6221606693       -0.3264608016
 H         -6.3628143016        3.4540888498       -0.0314253243
 H         -7.9309209805        3.0588074018       -0.7024419613
 C         -7.3682915741        1.7945174548        0.9095596267
 H         -7.6059636494        2.4886607587        1.7185013443
 H         -8.2702233374        1.2157639358        0.6976345116
 C         -6.2997888006        0.8152306226        1.3958443495
 H         -6.2672520920       -0.0523414622        0.7324361801
 H         -6.6006679391        0.4416456755        2.3765921606
 C         -4.8793618618        1.4058920584        1.4861484674
 H         -4.8962881703        2.4790555187        1.3019072932
 H         -4.4664145476        1.2330920106        2.4818907331
 H         -6.7097502859        2.2366577250       -2.4126155863
 H         -6.5747247438        0.7959719882       -1.4187543307
 H         -4.5181447447        2.9958196478       -1.1136146795
 H         -4.4622688420        1.9807412349       -2.5560372199
 O         -3.2024216187        0.2775239195       -1.6808884892
 C         -2.3318238432       -0.7228175323       -1.2646000987
 O         -1.6956719170       -1.2439220454       -2.2008917354
 O         -3.0121187137       -0.5432610990        2.2831120529
 C         -1.3353296336       -2.0767893545        0.6506125750
 C          0.0425905818       -1.5204649344        0.9063791920
 C          0.6873395708       -1.7304696730        2.1193926594
 C          1.9574611915       -1.2252564209        2.3374794889
 C          2.6069388932       -0.4982852689        1.3559892615
 C          1.9716761150       -0.2831561673        0.1396863540
 C          0.7003874136       -0.7952502594       -0.0773863590
 H          0.2160233263       -0.6360652577       -1.0299631417
 N          2.6094856275        0.4703294630       -0.8604642825
 S          4.1929654404        0.0841295326       -1.2621237278
 O          4.3680745396        0.5565099426       -2.6178411320
 O          4.4728265418       -1.3134203723       -1.0264079427
 C          5.1641293256        1.0968095048       -0.1659309957
 C          6.1425218493        0.5217146531        0.6210401108
 C          6.8920092412        1.3338568856        1.4581678633
 C          6.6516240305        2.6988210945        1.4923373266
 C          5.6667399622        3.2611081299        0.6936529390
 C          4.9147336728        2.4551743878       -0.1459409088
 H          4.1417559200        2.8518682634       -0.7830237926
 H          5.4821820710        4.3229385721        0.7231352890
 H          7.2348383005        3.3286933316        2.1453273896
 H          7.6581211564        0.8988903997        2.0796394719
 H          6.2897643632       -0.5450930377        0.5654275490
 H          2.0484283018        0.5853997896       -1.6924795792
 H          3.5950584855       -0.1010683390        1.5209759311
 H          2.4466161846       -1.3956401999        3.2842399001
 H          0.1819912287       -2.2843173098        2.8968598580
 H         -1.7677161162       -2.3436448745        1.6278845747
 C         -1.3097186814       -3.3440958371       -0.1937960845
 C         -0.1299639621       -3.7823978506       -1.0037737689
 C         -0.4949546032       -4.5249437377        0.2445323191
 H         -0.9228850437       -5.5118668713        0.1558005394
 H          0.1462800338       -4.3945018158        1.1031731580
 H         -0.3247931524       -4.2402948563       -1.9617588978
 H          0.7600345344       -3.1719292532       -0.9936941615
 H         -2.2838261010       -3.5601325980       -0.6215219959
