  62
        -98.94481757
 C         -1.8224374871       -1.0964178083       -0.1385384548
 C         -2.9856585284       -1.1430151289        0.6769106918
 C         -4.1954702713       -0.5240840130        0.1276177184
 C         -4.1639590524        0.0193946074       -1.1022433691
 C         -5.3202046727        0.6606860812       -1.8198554175
 C         -5.5481012980        2.1318485717       -1.4466598400
 C         -6.1334321759        2.3657295248       -0.0534083588
 H         -6.4433161728        3.4116851160       -0.0077933408
 H         -7.0287281613        1.7556424534        0.0703450525
 C         -5.1566275472        2.0901719675        1.0984909705
 H         -4.1345442600        2.0662825193        0.7127787634
 H         -5.2048062690        2.9086322668        1.8203666756
 C         -5.4271158743        0.7948423446        1.8643014709
 H         -6.3939788829        0.8625043071        2.3678478217
 H         -4.6552303049        0.6834732212        2.6301344057
 C         -5.4172815967       -0.4685095547        0.9936380069
 H         -5.3977391638       -1.3394807950        1.6531589322
 H         -6.3190010457       -0.5116340144        0.3830579002
 H         -6.2380613376        2.5515252447       -2.1824303044
 H         -4.5999438511        2.6670824603       -1.5378701571
 H         -6.2303655581        0.0910838060       -1.6299888824
 H         -5.0925062210        0.6075498041       -2.8867202948
 O         -3.0396602299        0.0270882872       -1.8624774176
 C         -1.8418382225       -0.4997677264       -1.3991015391
 O         -0.9031052517       -0.3654197180       -2.2116891371
 O         -3.0102588625       -1.6891264302        1.8114894616
 C         -0.5704476045       -1.7350038524        0.4385074735
 C          0.3718870949       -0.7142286549        1.0299683182
 C          0.7772292997       -0.7949503538        2.3567456775
 C          1.6795778075        0.1174185832        2.8767736425
 C          2.1948732998        1.1283446049        2.0855383725
 C          1.7873995381        1.2216247780        0.7613600430
 C          0.8902058905        0.3021494966        0.2402600598
 H          0.5854728203        0.3773585767       -0.7929731394
 N          2.3223879594        2.2373965992       -0.0619206063
 S          3.9848306741        2.1469393754       -0.2729519192
 O          4.6377014242        2.6777075939        0.8973403960
 O          4.2630208751        2.8272778380       -1.5177922336
 C          4.3130445246        0.3994700969       -0.4135996119
 C          4.8868713372       -0.2781671889        0.6425384880
 C          5.0602028433       -1.6491157379        0.5421461407
 C          4.6525010456       -2.3147480695       -0.6031175971
 C          4.0751100994       -1.6197331684       -1.6546841637
 C          3.8994302561       -0.2491878020       -1.5600827419
 H          3.4558480238        0.3225468254       -2.3600631913
 H          3.7547671770       -2.1385483701       -2.5442324910
 H          4.7870829666       -3.3824581864       -0.6781866963
 H          5.5070509697       -2.1939824791        1.3578412335
 H          5.1873693572        0.2790696748        1.5144790489
 H          1.8704860684        2.2767644897       -0.9652625739
 H          2.9071097620        1.8422329998        2.4667909213
 H          1.9856689661        0.0404175665        3.9087595181
 H          0.3735086464       -1.5753546802        2.9847830149
 H         -0.9296951373       -2.3722684621        1.2575559818
 C          0.1777161383       -2.6044748172       -0.5548466141
 C          1.0865049388       -3.6784581558       -0.0409239881
 C         -0.2053434380       -4.0444807185       -0.7068410500
 H         -0.1760146922       -4.4829001732       -1.6930093556
 H         -1.0118210689       -4.4144923718       -0.0905108747
 H          2.0084278984       -3.8644354957       -0.5686841129
 H          1.1581918557       -3.8036334303        1.0285125260
 H          0.4795412575       -2.0721631526       -1.4472873090
