  62
        -98.93820164
 C          1.7506982675        0.0975185507       -0.9215707463
 C          2.9304452748       -0.6871397929       -0.9558576426
 C          4.1851439663        0.0330395902       -0.6750298445
 C          4.1543098648        1.3516320817       -0.4152579443
 C          5.3485867425        2.1871253229       -0.0574277391
 C          5.5571550575        2.2359229199        1.4625929833
 C          5.5261435373        0.8629642638        2.1341155687
 H          5.7156506082        1.0170531458        3.1986526289
 H          4.5207358489        0.4450503264        2.0443922264
 C          6.5436529750       -0.1405914898        1.5737217404
 H          7.3193737332        0.3885665400        1.0190193260
 H          7.0316125766       -0.6477881242        2.4087894714
 C          5.9381854264       -1.2283948767        0.6846168257
 H          5.0988208171       -1.6992571752        1.2025783083
 H          6.6973817876       -1.9989267763        0.5255420621
 C          5.4557416984       -0.7697560340       -0.6973884017
 H          6.2520684488       -0.2176544929       -1.2006290827
 H          5.2335590906       -1.6655901101       -1.2847779912
 H          6.5142624028        2.7203778041        1.6643978523
 H          4.7663029020        2.8489246295        1.9009577362
 H          6.2317029215        1.7764738784       -0.5429994243
 H          5.1811037494        3.2008992670       -0.4250580605
 O          3.0047421763        2.0737377383       -0.4028752776
 C          1.7847668752        1.4673135688       -0.6439081173
 O          0.8102021681        2.2447823259       -0.5948124576
 H         -2.1155258361       -0.0172518842       -0.2565761653
 C         -1.5695920534       -0.6889229730        0.3872603430
 C         -0.2581696840       -1.0169778728        0.0780762030
 C          0.4409482221       -1.8611744430        0.9345657539
 C         -0.1692498903       -2.3669556227        2.0679477510
 C         -1.4878736142       -2.0612664138        2.3563945413
 C         -2.1948696485       -1.2180857593        1.5074988773
 N         -3.5286449709       -0.8809126617        1.7696969709
 S         -4.6132747691       -0.7086094746        0.5059931741
 O         -5.9097836148       -0.9233214254        1.1113186270
 O         -4.2752046276       -1.5705868298       -0.6016280176
 C         -4.4707961364        1.0010626156        0.0336883520
 C         -4.6360017965        1.9632839428        1.0100906656
 C         -4.5390608860        3.2989891325        0.6559790227
 C         -4.2809397435        3.6481081572       -0.6610767557
 C         -4.1213061857        2.6702939005       -1.6304166408
 C         -4.2179796787        1.3322787023       -1.2824287511
 H         -4.0948503634        0.5406754549       -2.0054034963
 H         -3.9181186030        2.9433104855       -2.6535951321
 H         -4.2019992706        4.6883961201       -0.9347664736
 H         -4.6615437419        4.0636276060        1.4060974028
 H         -4.8378120769        1.6530719107        2.0217680945
 H         -3.9398769786       -1.3413922346        2.5681414906
 H         -1.9667720867       -2.4707307730        3.2328976194
 H          0.3833077178       -3.0198708007        2.7269621045
 H          1.4596122414       -2.1266142631        0.6963418540
 C          0.3643565460       -0.4677547253       -1.1794020675
 H         -0.2429540674        0.3974391928       -1.4906793969
 C          0.3248971145       -1.4708335374       -2.3251823517
 C          0.1371453603       -2.9426236769       -2.1363394948
 C         -0.9722704973       -2.1184370075       -2.7133740920
 H         -1.2016474513       -2.2231633316       -3.7634076099
 H         -1.8377414970       -1.9370019925       -2.0912869995
 H          0.6902412942       -3.6044304375       -2.7852454164
 H          0.0224828370       -3.3185909735       -1.1320084397
 H          0.9792863824       -1.1740338067       -3.1390574929
 O          2.9600101265       -1.9196378436       -1.2015016818
