  62
        -98.94013703
 C         -2.0243825778       -1.2187113924        0.0317391038
 C         -2.3232073232       -0.0688034755       -0.7416924949
 C         -3.7481655038        0.2963806109       -0.8227338888
 C         -4.6660490942       -0.4533861484       -0.1884143685
 C         -6.1382513174       -0.1652032642       -0.1516300314
 C         -6.5040433617        0.7026066783        1.0606275963
 C         -5.6152668157        1.9350095029        1.2293471711
 H         -4.5981006723        1.6132515229        1.4649971343
 H         -5.9857733119        2.4866940484        2.0960719881
 C         -5.5805936832        2.8651443912        0.0086604633
 H         -5.6769719131        3.8972365247        0.3523346365
 H         -6.4336782514        2.6588585419       -0.6388804646
 C         -4.2915070898        2.7884163427       -0.8117582975
 H         -3.4280273644        2.9027605534       -0.1510781099
 H         -4.2821074099        3.6305911793       -1.5090002159
 C         -4.1004073908        1.5095595207       -1.6367675240
 H         -3.2552091850        1.6748639496       -2.3115303094
 H         -4.9911691429        1.3243634233       -2.2407193125
 H         -6.4170630070        0.0922005590        1.9624779279
 H         -7.5454115664        1.0139916312        0.9605542407
 H         -6.4284922654        0.3371893371       -1.0723473370
 H         -6.6727826144       -1.1141900856       -0.0821293685
 O         -4.3425378491       -1.5489185915        0.5444770280
 C         -3.0233503074       -1.9423323824        0.6911539287
 O         -2.8689120698       -2.9396012135        1.4237514561
 H          1.2114347817       -0.3023745795       -1.2595011530
 C          1.1604956532        0.0465907913       -0.2399408737
 C          0.2846984775       -0.5571967345        0.6486480649
 C          0.2130777366       -0.0681636111        1.9490930266
 C          0.9959625442        0.9993976122        2.3486788877
 C          1.8601934035        1.6076724204        1.4555979761
 C          1.9321214711        1.1318433918        0.1532482469
 N          2.7995956095        1.7576901057       -0.7652262080
 S          4.4299916428        1.7729525687       -0.3939738765
 O          4.6549951968        2.6407813019        0.7338834741
 O          5.1056617200        2.1272766098       -1.6212523964
 C          4.7963857043        0.0849081115        0.0489497733
 C          4.6797964571       -0.3115831068        1.3660326546
 C          4.8833364059       -1.6452737438        1.6829677009
 C          5.1963615514       -2.5538099853        0.6837019396
 C          5.3121216110       -2.1390244548       -0.6344450291
 C          5.1042697405       -0.8081538642       -0.9582530940
 H          5.1895426983       -0.4429364611       -1.9692275693
 H          5.5584895523       -2.8477324178       -1.4088614351
 H          5.3520837584       -3.5914620167        0.9338779736
 H          4.7937035812       -1.9709568806        2.7067910150
 H          4.4400054585        0.4253338703        2.1145381764
 H          2.6601106961        1.4473979035       -1.7160287479
 H          2.4769436406        2.4432091441        1.7455639745
 H          0.9282710603        1.3664895441        3.3617694605
 H         -0.4728011222       -0.5331807594        2.6443424087
 C         -0.6010404063       -1.7093467394        0.2472850436
 H         -0.6699342477       -2.3956648600        1.1062258425
 C         -0.0283644635       -2.5211447536       -0.9055018963
 C         -0.8941497964       -3.4852473629       -1.6589061396
 C         -0.3651138431       -2.2615342496       -2.3417661911
 H          0.4160194846       -2.3860343367       -3.0780169487
 H         -1.0494742929       -1.4587874569       -2.5654622227
 H         -1.9433467224       -3.5146419731       -1.4024144495
 H         -0.4833804175       -4.4465516035       -1.9279674310
 H          0.9865984078       -2.8464597472       -0.6969361226
 O         -1.4655396719        0.6245250928       -1.3461616917
