  62
        -98.93191600
 C          2.2209035502       -0.6947407102        0.0869488084
 C          3.5327588748       -1.2069275166        0.2410504420
 C          4.6379861694       -0.3841203362       -0.2801486392
 C          4.3574456155        0.7787983040       -0.8964995339
 C          5.2605329518        1.8031286945       -1.5515181615
 C          6.7674572603        1.7845755862       -1.3079812908
 C          7.1894567531        2.1286924211        0.1201163227
 H          8.2694516915        1.9876324336        0.2004037157
 H          6.9776791798        3.1858218890        0.2994924801
 C          6.5012074540        1.3287221266        1.2234258123
 H          5.4298749176        1.5412217661        1.2166204864
 H          6.8910065811        1.6789879137        2.1831120423
 C          6.7088302985       -0.1833970160        1.1620386607
 H          6.3044003439       -0.6086310724        2.0846815940
 H          7.7768925323       -0.4067109469        1.1316714063
 C          6.0237644289       -0.8983525520       -0.0155747665
 H          6.6306810330       -0.8487392999       -0.9162450501
 H          5.9126001123       -1.9540574224        0.2484093435
 H          7.1977503749        2.5413281188       -1.9695522169
 H          7.1857813134        0.8288587152       -1.6094599275
 H          4.8620772041        2.7797580183       -1.2584822749
 H          5.0821342435        1.7099145043       -2.6284931149
 O          3.0721747018        1.2042437569       -1.0733317792
 C          1.9782569934        0.4980194255       -0.5923342124
 O          0.8844844760        1.0369103276       -0.8460866661
 O          3.7736354907       -2.3172020767        0.7855025407
 C          1.0748104695       -1.5156973256        0.6480705784
 C         -0.0571578965       -1.5940093863       -0.3448539777
 C          0.1836956105       -2.1800415748       -1.5849878381
 C         -0.8151966851       -2.2547683740       -2.5352588010
 C         -2.0767115913       -1.7543228022       -2.2664138868
 C         -2.3330613413       -1.1817899410       -1.0259552609
 C         -1.3262294089       -1.1079471414       -0.0736064181
 H         -1.5410880263       -0.6336432788        0.8682065773
 N         -3.6281545506       -0.7258460189       -0.7217554430
 S         -3.9030899655        0.5350933523        0.3611341627
 O         -3.2773380133        1.7576768657       -0.0902812886
 O         -3.5714802893        0.0937539617        1.6925034175
 C         -5.6761684303        0.6632235197        0.2050742222
 C         -6.4612042537       -0.2898907103        0.8262808612
 C         -7.8382871642       -0.2150478727        0.6925979136
 C         -8.4054568040        0.8061817917       -0.0554639532
 C         -7.6055391646        1.7571051363       -0.6706269177
 C         -6.2270130058        1.6867661221       -0.5419226867
 H         -5.5656242445        2.4074413709       -0.9957488938
 H         -8.0488981083        2.5519893756       -1.2485154595
 H         -9.4776972857        0.8630014784       -0.1571669824
 H         -8.4636677244       -0.9508935744        1.1717626568
 H         -5.9764992150       -1.0591399637        1.4042383063
 H         -4.1976095137       -0.6062574502       -1.5487575452
 H         -2.8560338839       -1.8050372327       -3.0116559718
 H         -0.6105126870       -2.7007731481       -3.4971448275
 H          1.1735161253       -2.5611615250       -1.7984390082
 H          1.4947762875       -2.5295905386        0.7637012458
 C          0.6235564860       -1.0732688111        2.0320503891
 C          1.5646073073       -0.3975613176        2.9824534877
 C          0.4264077167        0.3699477739        2.3829782016
 H         -0.4136709970        0.6332764246        3.0100334551
 H          0.6380076338        1.1031508414        1.6195909606
 H          1.5144635114       -0.6614409817        4.0280725014
 H          2.5638830728       -0.1835832233        2.6319876116
 H         -0.0791123453       -1.7746765501        2.4726868190
