  62
        -98.93062285
 C          2.3790012467        0.5911941520        0.4934884554
 C          3.1870274609        0.4407202906       -0.6603343682
 C          4.3310097114       -0.4809323729       -0.5288638003
 C          4.5217668541       -1.1421026718        0.6259073035
 C          5.6800820717       -2.0479390070        0.9338162797
 C          6.9322617471       -1.2075429799        1.2566868457
 C          8.0691742450       -1.3535578642        0.2448489793
 H          8.7944513449       -0.5637885589        0.4523441314
 H          8.5690110276       -2.3105854527        0.4085468823
 C          7.6642564578       -1.2833745484       -1.2307689470
 H          7.2533449755       -2.2440164867       -1.5447043345
 H          8.5814298970       -1.1348634569       -1.8047861688
 C          6.6670027225       -0.1782290456       -1.6019467734
 H          6.7152035787        0.6402909379       -0.8833195544
 H          6.9603130163        0.2319916714       -2.5704444761
 C          5.2076253926       -0.6512170341       -1.7389965760
 H          4.7213414791       -0.0606525435       -2.5211401014
 H          5.1908717768       -1.6967731698       -2.0584058781
 H          7.3131219140       -1.4850972972        2.2407538519
 H          6.6332946970       -0.1591068345        1.3210088202
 H          5.3977898913       -2.6548039253        1.7943087968
 H          5.8679587018       -2.7063957641        0.0887412981
 O          3.7031660078       -0.9971607385        1.7010215770
 C          2.6262341766       -0.1303751877        1.6641117418
 O          1.9712329539       -0.0824598175        2.7255267368
 H         -1.1696124620        1.2970038833        1.8430163982
 C         -1.2021133321        0.8347922125        0.8650692105
 C         -0.0669035010        0.8489188529        0.0681730696
 C         -0.1195269829        0.2334436185       -1.1786506612
 C         -1.2850348582       -0.3727166134       -1.6108920859
 C         -2.4158048872       -0.3835647931       -0.8126237277
 C         -2.3727229814        0.2227389454        0.4351551992
 N         -3.5142553333        0.2014626390        1.2546888688
 S         -4.9655406494        0.7380717123        0.6005125227
 O         -4.7414176860        1.7130165338       -0.4413745711
 O         -5.7510722710        1.1753978946        1.7336270754
 C         -5.7014425936       -0.7314734714       -0.0830558365
 C         -5.8966000951       -1.8129911558        0.7535309515
 C         -6.4812047368       -2.9591728678        0.2392140937
 C         -6.8612638653       -3.0032305650       -1.0940762363
 C         -6.6609261976       -1.9079534861       -1.9201745394
 C         -6.0756517033       -0.7585067477       -1.4121896871
 H         -5.8958783575        0.1153672003       -2.0180068694
 H         -6.9570335653       -1.9442069417       -2.9562882025
 H         -7.3165632361       -3.8966189343       -1.4914295265
 H         -6.6383630579       -3.8131699572        0.8782578323
 H         -5.5910470240       -1.7374407563        1.7837837707
 H         -3.3657549840        0.6002405952        2.1705365323
 H         -3.3252652001       -0.8560475409       -1.1462855402
 H         -1.3135106157       -0.8439568296       -2.5816766685
 H          0.7601562711        0.2427976067       -1.8040759160
 C          1.1852906028        1.5303621877        0.5565287827
 H          1.0471310623        1.7394750188        1.6295225568
 C          1.4423228215        2.8671514814       -0.1270995104
 C          0.7641389156        3.3112138022       -1.3843258731
 C          0.3977240392        3.9433449618       -0.0774553179
 H          0.7066658197        4.9592964384        0.1169062627
 H         -0.5622838780        3.6856390474        0.3460870108
 H          0.0486572478        2.6488452261       -1.8449217742
 H          1.3497385771        3.8775194391       -2.0921619477
 H          2.4714460309        3.1887868177       -0.0028037674
 O          2.9831874671        1.0330507436       -1.7501174024
