  62
        -98.94459747
 C         -1.9777282850        0.7885287812       -0.5442485888
 C         -1.9909059102        0.0915328620        0.6875803412
 C         -2.1372692982       -1.3671283369        0.5959748809
 C         -2.1818241782       -1.9497791508       -0.6156101352
 C         -2.3631020952       -3.4206432447       -0.8543174840
 C         -3.8482035629       -3.7846606269       -0.9934163135
 C         -4.7298595699       -3.2161827071        0.1184482607
 H         -4.7385365908       -2.1265491413        0.0422953751
 H         -5.7493506966       -3.5607643330       -0.0671613582
 C         -4.3026074765       -3.6208283593        1.5361297811
 H         -5.1907574154       -3.9155708636        2.0988610752
 H         -3.6437390498       -4.4885473346        1.4906987548
 C         -3.6189686454       -2.5085696686        2.3336174926
 H         -3.5562570843       -2.8272856539        3.3773867600
 H         -4.2331191026       -1.6052234891        2.3028050156
 C         -2.1995119042       -2.1392864289        1.8834315300
 H         -1.7653457308       -1.4822133928        2.6428781512
 H         -1.5829760780       -3.0385314935        1.8207214934
 H         -3.9359545294       -4.8724580435       -1.0109750703
 H         -4.2097083742       -3.3981093312       -1.9490538354
 H         -1.9158849936       -3.9719937162       -0.0293293176
 H         -1.8428256668       -3.6836145079       -1.7771385482
 O         -2.1167068527       -1.2509735262       -1.7790377488
 C         -2.0155608413        0.1303882221       -1.7717516148
 O         -1.9730204501        0.6503937703       -2.9070960586
 O         -1.8943156240        0.6597770118        1.8073887267
 C         -1.8138128161        2.2979752779       -0.5533051742
 C         -0.5221433266        2.6589192155        0.1405092871
 C         -0.4087918797        3.6777549995        1.0770177360
 C          0.8040023610        3.9227290687        1.6982970442
 C          1.9183089301        3.1581555074        1.4079847666
 C          1.8196435387        2.1502190421        0.4543046001
 C          0.6114314123        1.9228965988       -0.1813499331
 H          0.5444844330        1.1351284669       -0.9191554945
 N          2.9386346815        1.3721446970        0.1082045366
 S          2.6914618716       -0.2324647469       -0.3548282617
 O          2.3338010912       -0.2621076745       -1.7521878410
 O          1.7847545165       -0.8928374094        0.5571968380
 C          4.3469039002       -0.8654063313       -0.1519034017
 C          4.6699475207       -1.5764822153        0.9881301033
 C          5.9702151785       -2.0292958228        1.1498865447
 C          6.9205477120       -1.7615622744        0.1761608064
 C          6.5811699283       -1.0468864868       -0.9632773162
 C          5.2828532544       -0.5926674658       -1.1319039184
 H          4.9687971305       -0.0417628553       -2.0030935878
 H          7.3217858097       -0.8427123777       -1.7195122717
 H          7.9316397743       -2.1140480930        0.3049641579
 H          6.2356987761       -2.5876428808        2.0330676488
 H          3.8951228307       -1.7646455010        1.7140871754
 H          3.6928335171        1.4516250258        0.7770716519
 H          2.8566610315        3.3366018735        1.9105284459
 H          0.8774078828        4.7109999489        2.4321331590
 H         -1.2724466645        4.2698300849        1.3317001234
 H         -1.7276790455        2.5888073052       -1.6111523648
 C         -3.0330429286        2.9692709613        0.0434733204
 C         -3.4440507760        4.3353091709       -0.4149893548
 C         -4.2532454357        3.1374813031       -0.8093953473
 H         -5.2228542031        2.9950998583       -0.3564384726
 H         -4.1930436533        2.7894889486       -1.8306964537
 H         -3.8633050798        5.0179060807        0.3086057040
 H         -2.8408058141        4.8095926336       -1.1742799664
 H         -3.1815719498        2.7081556002        1.0849498513
