  62
        -98.93849614
 C          0.7194093349        1.4024341686        0.2385413571
 C          1.1379117049        0.5967977467       -0.8465090458
 C          2.2564596672       -0.3295954660       -0.5747864153
 C          2.7251923186       -0.4505792110        0.6781183500
 C          3.8821587339       -1.2865778887        1.1515993284
 C          5.1739167005       -0.4518533957        1.1796221721
 C          5.9446608551       -0.4159522969       -0.1395221882
 H          6.7535671845        0.3091001999       -0.0242033289
 H          6.4029243288       -1.3916246878       -0.3145963755
 C          5.1184855867       -0.0369226325       -1.3716599031
 H          4.4566460016        0.7969113333       -1.1305467408
 H          5.8083748059        0.3118936157       -2.1426806053
 C          4.2996422092       -1.2087718107       -1.9338712542
 H          4.6475147863       -2.1361308947       -1.4788645403
 H          4.4901800310       -1.3008831519       -3.0052411254
 C          2.7767622364       -1.0891910056       -1.7644598765
 H          2.3528664798       -0.5728349207       -2.6317340621
 H          2.3386401255       -2.0929499106       -1.7634841893
 H          4.9093132307        0.5652878324        1.4793865356
 H          5.8372938784       -0.8562045154        1.9467684926
 H          3.6475898690       -1.5946910710        2.1720902138
 H          4.0043829578       -2.1709334745        0.5335728733
 O          2.2078830971        0.2546240312        1.7199104813
 C          1.2350425229        1.2132789547        1.5242687318
 O          0.9089263159        1.8311851070        2.5571326511
 H         -1.5757396573        0.3648745612       -0.9817254344
 C         -2.1952220283        0.8836971505       -0.2657620294
 C         -1.7118784286        2.0086012622        0.3875939691
 C         -2.5404727959        2.6742563873        1.2837133335
 C         -3.8267065197        2.2259249517        1.5211328243
 C         -4.3004170754        1.0932191213        0.8855512527
 C         -3.4771004179        0.4168244634       -0.0088785199
 N         -3.9337721225       -0.7455328754       -0.6426511520
 S         -2.8860356368       -1.9621860089       -1.0845863826
 O         -2.2566008764       -1.6551626009       -2.3425508394
 O         -3.7152920710       -3.1513667351       -1.0838396642
 C         -1.6597015131       -2.1184373174        0.2042331470
 C         -0.4015985959       -2.5477629905       -0.1637380795
 C          0.5506643772       -2.7669854111        0.8183576802
 C          0.2358784115       -2.5336786648        2.1472219169
 C         -1.0303223849       -2.0969024027        2.5018271138
 C         -1.9942006832       -1.9005191068        1.5258726681
 H         -2.9877850848       -1.5756950633        1.7878353113
 H         -1.2705884595       -1.9103390896        3.5361527641
 H          0.9814176342       -2.6917275421        2.9103862108
 H          1.5324402355       -3.1175125555        0.5448558001
 H         -0.1915329993       -2.6900113783       -1.2121008765
 H         -4.8152214048       -1.1057452098       -0.3079332857
 H         -5.2982250994        0.7293547381        1.0773404334
 H         -4.4614958753        2.7535972377        2.2161833799
 H         -2.1641128120        3.5414440699        1.8050395909
 C         -0.3130101817        2.5123661990        0.1281148227
 H         -0.0676750578        3.2220685650        0.9311512400
 C         -0.2727282150        3.2592876165       -1.1912560729
 C         -0.7442865402        4.6802151870       -1.2396593854
 C          0.7153643391        4.3691721617       -1.3782520281
 H          1.1827713536        4.4836788809       -2.3446590970
 H          1.3670708832        4.6024237891       -0.5484706030
 H         -1.2849265174        5.0116034753       -2.1128421830
 H         -1.0790374035        5.1313315719       -0.3179726548
 H         -0.4813726558        2.6293848785       -2.0460928666
 O          0.6382018181        0.6402766585       -2.0019679721
