  62
        -98.94322089
 C         -2.5086603457       -1.0355953098       -0.1622550194
 C         -3.6603161307       -0.8866232866        0.6474083092
 C         -4.6973168543        0.0156360617        0.1304894937
 C         -4.5057525814        0.6274770352       -1.0527673191
 C         -5.4538509248        1.6133200445       -1.6704908404
 C         -5.1128882737        3.0503516432       -1.2516281675
 C         -4.9186967730        3.2251512711        0.2545415332
 H         -4.0321960176        2.6679895892        0.5662215349
 H         -4.7128818202        4.2823693258        0.4352635081
 C         -6.1186789389        2.7854479448        1.1049882034
 H         -6.3071041155        3.5464639563        1.8651986635
 H         -7.0114551845        2.7226352852        0.4818080548
 C         -5.9218678369        1.4593843521        1.8419239242
 H         -4.9794320017        1.4839922160        2.3949073898
 H         -6.7271119995        1.3539995616        2.5738640964
 C         -5.9334299876        0.2007387579        0.9651295641
 H         -5.9782778162       -0.6667266576        1.6301600367
 H         -6.8266325006        0.1980613910        0.3371777060
 H         -4.1882757682        3.3466118818       -1.7523155074
 H         -5.9123680668        3.7088354698       -1.5960416021
 H         -5.3744189893        1.5324463191       -2.7558456122
 H         -6.4709725257        1.3678766952       -1.3712161304
 O         -3.3916374158        0.4505073927       -1.8074495591
 C         -2.3609884533       -0.3745983259       -1.3815785522
 O         -1.3961728783       -0.4360252977       -2.1665528254
 O         -3.8117685832       -1.4783218923        1.7501630087
 C         -1.3898349194       -1.9423544723        0.3197947021
 C         -0.1333135570       -1.1298217777        0.5113326043
 C         -0.1534225953       -0.0813333272        1.4284637591
 C          0.9655322689        0.7015210368        1.6328421346
 C          2.1310960946        0.4599105265        0.9255319036
 C          2.1654637088       -0.5862825398        0.0152538970
 C          1.0394467601       -1.3777659899       -0.1821529064
 H          1.0826294201       -2.1838304719       -0.8976795153
 N          3.3369763208       -0.8298757204       -0.7169531627
 S          4.8183783921       -0.8314805322        0.0639550546
 O          5.6812754311       -1.6392484853       -0.7700638428
 O          4.6910241329       -1.2431469936        1.4426897802
 C          5.3533256216        0.8646539113       -0.0210275085
 C          5.3878068593        1.4756505659       -1.2591297702
 C          5.8123652692        2.7918964781       -1.3440134123
 C          6.1958214607        3.4703094757       -0.1965761205
 C          6.1590971834        2.8417252130        1.0385574669
 C          5.7344197858        1.5252860829        1.1303244582
 H          5.6844414776        0.9982303014        2.0699378465
 H          6.4580879521        3.3707701762        1.9291853777
 H          6.5258018938        4.4948479578       -0.2658896288
 H          5.8418749200        3.2840915724       -2.3028418149
 H          5.0833014722        0.9146275064       -2.1269462757
 H          3.2628240617       -1.5892239336       -1.3774638772
 H          3.0068858408        1.0693928135        1.0767244582
 H          0.9323974719        1.5107526395        2.3466228165
 H         -1.0648519796        0.1097807811        1.9786761031
 H         -1.7134651185       -2.3040294866        1.3066949374
 C         -1.2256465871       -3.1316598869       -0.6019316042
 C         -0.5738742294       -4.3836878203       -0.0975354203
 C         -2.0492876345       -4.3591223447       -0.3587213156
 H         -2.4317916970       -4.9001241133       -1.2111884572
 H         -2.7200405621       -4.3482352499        0.4878150137
 H          0.0563890542       -4.9463983980       -0.7698920225
 H         -0.2391848997       -4.3930404687        0.9289136117
 H         -1.0544488600       -2.8442480269       -1.6332936918
