  62
        -98.93959080
 C         -1.0039515293       -1.4511388299        0.4860398990
 C         -1.9323315893       -1.1546553700       -0.5373366910
 C         -2.9916565594       -0.1820521202       -0.2056867310
 C         -3.0188945495        0.3650187598        1.0226968890
 C         -3.9650378997        1.3972546797        1.5833813690
 C         -5.4542801997        1.2497642795        1.2380807289
 C         -5.9590851698        2.3043880394        0.2513862189
 H         -7.0359237298        2.4249279692        0.3893108389
 H         -5.4898850800        3.2598555395        0.4957110189
 C         -5.7155054497        1.9872167394       -1.2229077011
 H         -5.9908320299        2.8722270194       -1.8013357611
 H         -6.3780604896        1.1762845093       -1.5330140711
 C         -4.2793981197        1.5975681596       -1.5782720611
 H         -4.1344787197        1.7858112396       -2.6444376710
 H         -3.5664960698        2.2294932797       -1.0476821010
 C         -3.9623788295        0.1174173697       -1.3146946210
 H         -4.8881284494       -0.4378190805       -1.1398313511
 H         -3.5061476694       -0.3244865603       -2.2061051310
 H         -5.6501376495        0.2484921094        0.8584655189
 H         -6.0198084097        1.3609390394        2.1647328089
 H         -3.6062481698        2.3839919597        1.2767448790
 H         -3.8295833097        1.3439981397        2.6664463690
 O         -2.0952717495        0.0543994400        1.9772087790
 C         -1.0590261594       -0.8260914899        1.7294554390
 O         -0.2637581094       -0.9689091298        2.6816828790
 O         -1.8781922592       -1.6684845700       -1.6860451110
 C          0.1567203409       -2.3888839997        0.2154359490
 C          1.0514791508       -1.8243382296       -0.8640998210
 C          1.7534604209       -2.6202748195       -1.7614015709
 C          2.5803907109       -2.0419384594       -2.7090322209
 C          2.7413678507       -0.6694631793       -2.7739148609
 C          2.0458655505        0.1348345806       -1.8783571609
 C          1.2133609106       -0.4484216796       -0.9375102210
 H          0.6582363705        0.1893092004       -0.2679930510
 N          2.1636546003        1.5316117106       -1.9095650209
 S          2.0626899602        2.4257136806       -0.5025407310
 O          0.7050722402        2.4638246404       -0.0175591810
 O          2.6385986400        3.7049240406       -0.8601177909
 C          3.1382986103        1.5914495807        0.6504057491
 C          2.6263411104        0.8569899106        1.6996585791
 C          3.5037414205        0.1871700908        2.5389101591
 C          4.8695311005        0.2639481710        2.3188234791
 C          5.3700736004        1.0144708011        1.2650627291
 C          4.4986483203        1.6817121809        0.4211926491
 H          4.8481328402        2.2858652110       -0.4000989509
 H          6.4332806004        1.0784909512        1.0990754791
 H          5.5459250605       -0.2612892589        2.9744808791
 H          3.1014190205       -0.3932197493        3.3541302091
 H          1.5602469304        0.8061319905        1.8581048890
 H          2.8592046603        1.8938862907       -2.5443562909
 H          3.3861468406       -0.2225618993       -3.5146719109
 H          3.1129452010       -2.6708267493       -3.4060398009
 H          1.6461677111       -3.6919913195       -1.7235544109
 H          0.7421464009       -2.4207979496        1.1473104390
 C         -0.3423439289       -3.7858809698       -0.0937399010
 C          0.4489387713       -4.9865872497        0.3278192990
 C         -0.8270262188       -4.6445734199        1.0346085890
 H         -1.6937341987       -5.2677858100        0.8735726990
 H         -0.7667252889       -4.2313515198        2.0313031890
 H          0.4568981214       -5.8509715997       -0.3190241910
 H          1.3764939312       -4.8173845695        0.8536059891
 H         -0.8892781089       -3.8324031099       -1.0280501310
