  62
        -98.94268820
 C          1.6156519097        1.4644899178        0.2411939704
 C          1.3221265278        0.3687706488       -0.6022871497
 C          1.9758373470       -0.9035734902       -0.2674631881
 C          2.7675445304       -0.9647796335        0.8183757573
 C          3.5452991688       -2.1703207843        1.2644188510
 C          4.7925396174       -2.3584169832        0.3772324747
 C          4.7779517681       -3.6326239696       -0.4672826673
 H          5.5849587283       -3.5502898504       -1.1983388035
 H          5.0003467097       -4.4868439645        0.1755446271
 C          3.4669637407       -3.9269071596       -1.2019720579
 H          3.6840742700       -4.6980150323       -1.9442074856
 H          2.7446624824       -4.3577007432       -0.5068053366
 C          2.8142773914       -2.7316485537       -1.9077172773
 H          2.4080729084       -3.0806500296       -2.8590947734
 H          3.5582841105       -1.9691381000       -2.1387581482
 C          1.6479795853       -2.0866460658       -1.1360628094
 H          0.9211908817       -1.7065314238       -1.8602938360
 H          1.1375474780       -2.8429512045       -0.5317372830
 H          4.8809846547       -1.4875835142       -0.2755040776
 H          5.6851677368       -2.3731067519        1.0043988731
 H          3.8362991092       -2.0015718456        2.3016785055
 H          2.9052956019       -3.0493645260        1.2247647082
 O          3.0165426753        0.1079054960        1.6146708980
 C          2.4361211863        1.3392131239        1.3594448131
 O          2.7249097595        2.2294582104        2.1867269808
 H         -0.5189875527        1.2550510118        1.5954912036
 C         -1.1358958825        1.7628038466        0.8679265213
 C         -0.5518532891        2.6204535046       -0.0557144864
 C         -1.3749652871        3.2691022708       -0.9680085109
 C         -2.7398401923        3.0373656687       -0.9707610026
 C         -3.3084312374        2.1409267510       -0.0843934380
 C         -2.4944316668        1.4965296395        0.8397623897
 N         -3.0153742426        0.5569287285        1.7550948356
 S         -2.4746939230       -1.0242173144        1.6102730358
 O         -3.2135480622       -1.7635069676        2.6124104692
 O         -1.0389550901       -1.0703980104        1.7122761284
 C         -3.0223159076       -1.5275623428       -0.0116257688
 C         -2.3100700011       -1.1258843988       -1.1236470056
 C         -2.7914434492       -1.4656899022       -2.3792225811
 C         -3.9662841374       -2.1907845763       -2.5018971347
 C         -4.6704973053       -2.5841805610       -1.3735770973
 C         -4.1985730554       -2.2459608592       -0.1160102329
 H         -4.7090244176       -2.5316027796        0.7896925402
 H         -5.5837861264       -3.1489929156       -1.4697624985
 H         -4.3337740618       -2.4504711097       -3.4821784009
 H         -2.2382817161       -1.1537876091       -3.2506829085
 H         -1.3961942491       -0.5635761823       -1.0086801643
 H         -4.0258178177        0.5518011654        1.7980403859
 H         -4.3687296075        1.9385065976       -0.1049976679
 H         -3.3661185712        3.5472243493       -1.6866852673
 H         -0.9458388273        3.9518376691       -1.6830699344
 C          0.9465559782        2.8034132258       -0.0113255051
 H          1.1932874367        3.4369189894        0.8536915184
 C          1.5089347226        3.4437698672       -1.2643677006
 C          1.6006312437        4.9351006895       -1.3792288163
 C          2.8437721502        4.1200727217       -1.1912057651
 H          3.5237225250        4.0121358323       -2.0228616679
 H          3.3331205072        4.1423781246       -0.2279771239
 H          1.2527231561        5.5239019032       -0.5439531204
 H          1.4308858259        5.3901073205       -2.3434271806
 H          1.2861903026        2.8714756009       -2.1575993238
 O          0.5412277940        0.4502975135       -1.5879750454
