  62
        -98.93518120
 C         -2.3353626968       -1.0404827200        0.1418901509
 C         -3.5963177930       -0.8778193069        0.7724989432
 C         -4.5801181594       -0.0226293381        0.0892324758
 C         -4.2352137944        0.5857042094       -1.0579527755
 C         -5.0738040264        1.4705290775       -1.9464115497
 C         -5.9846503611        2.5012983414       -1.2671887525
 C         -5.4257564287        3.1035886884        0.0301906981
 H         -4.3740949374        2.8344427231        0.1447669173
 H         -5.4771120523        4.1921501052       -0.0329988195
 C         -6.2031584334        2.6676270520        1.2744851527
 H         -6.0114429380        3.3839585961        2.0769478604
 H         -7.2715219128        2.7055018286        1.0509143889
 C         -5.8535422839        1.2808863649        1.8125584337
 H         -4.8495916242        1.2939232470        2.2452193917
 H         -6.5482736854        1.0494631764        2.6234442607
 C         -5.9021805992        0.1400245007        0.7831826946
 H         -6.0751111767       -0.7934468859        1.3256004086
 H         -6.7131048667        0.2838526913        0.0733898212
 H         -6.1554327320        3.2968568708       -1.9945859500
 H         -6.9549225038        2.0515479755       -1.0614910465
 H         -4.3564159352        1.9845511994       -2.5911072064
 H         -5.6800648117        0.8267440740       -2.5907323151
 O         -2.9998339197        0.4346968816       -1.6113826766
 C         -2.0217408850       -0.3709655019       -1.0413094256
 O         -0.9589916848       -0.3918190819       -1.6907606229
 O         -3.8942307800       -1.4355576066        1.8614174529
 C         -1.3194472765       -1.9228880806        0.8477363735
 C         -0.0137483943       -1.1862176414        0.9949224600
 C          0.1310025760       -0.2443577001        2.0091775007
 C          1.3010535842        0.4801470349        2.1367179643
 C          2.3461140673        0.2891714480        1.2494380640
 C          2.2023091011       -0.6321426812        0.2213015869
 C          1.0363141239       -1.3788543150        0.1122348654
 H          0.9299712879       -2.0846509852       -0.6967420423
 N          3.2498614871       -0.8296721921       -0.6924551844
 S          4.0856465366        0.4978252038       -1.2859642298
 O          3.2759846086        1.6935215472       -1.3114267600
 O          4.6303048324        0.0601139091       -2.5531824678
 C          5.4242095633        0.6921395849       -0.1247752370
 C          5.6591742294        1.9218922063        0.4580550954
 C          6.7117715654        2.0514588007        1.3509994842
 C          7.5075708489        0.9546134586        1.6432640586
 C          7.2607996427       -0.2731562045        1.0471133286
 C          6.2110959446       -0.4086177785        0.1529097406
 H          5.9882597599       -1.3433317230       -0.3336794180
 H          7.8817368362       -1.1240111130        1.2768831740
 H          8.3246827889        1.0572668343        2.3397325077
 H          6.9051274671        3.0056474404        1.8143420970
 H          5.0111913868        2.7460778618        0.2043894189
 H          3.0126235270       -1.4637925121       -1.4417943741
 H          3.2549555575        0.8622828878        1.3328244442
 H          1.4012966082        1.2042265491        2.9310676292
 H         -0.6914104509       -0.0803009855        2.6919284954
 H         -1.7438631760       -2.0697123991        1.8540162457
 C         -1.1526149535       -3.3100893427        0.2451644204
 C         -2.3438815512       -4.0640716071       -0.2634499885
 C         -1.2888295777       -3.5971235646       -1.2188646359
 H         -0.6315856225       -4.3358435043       -1.6549454906
 H         -1.5161259039       -2.7755009801       -1.8798911757
 H         -2.4180823598       -5.1197836773       -0.0509564913
 H         -3.2932268881       -3.5484419822       -0.2623571762
 H         -0.4076418527       -3.8897284017        0.7821864787
