  62
        -98.93739440
 C         -2.3014874531       -1.1077060502        0.1126201100
 C         -2.2410337730        0.0175974537       -0.7458799406
 C         -2.8646513752        1.2460340432       -0.2321554314
 C         -3.3814881056        1.2744450412        1.0083929151
 C         -4.0105424825        2.4634344850        1.6824724365
 C         -5.4882238455        2.6767907426        1.3259098094
 C         -5.7483150477        3.1982983970       -0.0879070797
 H         -6.7945539846        3.5076644154       -0.1273464712
 H         -5.1393076907        4.0855426247       -0.2636288178
 C         -5.4955395457        2.1692538810       -1.1985366780
 H         -5.4634563465        1.1669482427       -0.7651084411
 H         -6.3271157001        2.1856681881       -1.9065095851
 C         -4.2142510234        2.4030312440       -1.9987961342
 H         -4.2890560753        3.3470147766       -2.5429523076
 H         -4.1155754985        1.5982444525       -2.7316696603
 C         -2.9365696601        2.4295365061       -1.1497367407
 H         -2.0755999720        2.3815499839       -1.8210692712
 H         -2.8816035593        3.3562227398       -0.5787638811
 H         -6.0212974412        1.7344013698        1.4712055742
 H         -5.8924988285        3.4003321174        2.0375141227
 H         -3.9371114220        2.2838617388        2.7573348483
 H         -3.4419599115        3.3626094302        1.4426157242
 O         -3.3688284331        0.1882813441        1.8266882319
 C         -2.8516867705       -1.0206278478        1.3948799897
 O         -2.9385022850       -1.9402720725        2.2337916372
 H          0.2206629172       -0.7575702617       -0.9485838246
 C          0.5940024147       -1.5571223469       -0.3248319308
 C         -0.2800813242       -2.5454070129        0.1076544781
 C          0.2171608379       -3.5649543119        0.9096028795
 C          1.5542135918       -3.5906051036        1.2688001888
 C          2.4206403677       -2.6016907029        0.8380833747
 C          1.9310863953       -1.5775741207        0.0389548954
 N          2.8067559912       -0.5505280996       -0.3962522326
 S          3.2555639355        0.5463635389        0.8122921933
 O          3.6507394757       -0.1937712515        1.9829866816
 O          2.2104645028        1.5331559629        0.9973170360
 C          4.6832388204        1.3040580528        0.0624041156
 C          5.8686233381        0.5946231841        0.0489927085
 C          6.9789448186        1.1573349661       -0.5591994391
 C          6.8853330672        2.4125419493       -1.1421885120
 C          5.6885461280        3.1121307702       -1.1207853602
 C          4.5736609806        2.5537869343       -0.5147965139
 H          3.6245397395        3.0635878492       -0.4690695109
 H          5.6184534456        4.0883418541       -1.5731016526
 H          7.7508721058        2.8491311339       -1.6149806357
 H          7.9116956811        0.6171497175       -0.5769772616
 H          5.8960470433       -0.3734500837        0.5206940263
 H          2.3768265073       -0.0096371974       -1.1374671539
 H          3.4574867884       -2.5993924989        1.1300374257
 H          1.9246076842       -4.3874382467        1.8957252689
 H         -0.4565326846       -4.3291767675        1.2693387663
 C         -1.7406703003       -2.4730574974       -0.2569867411
 H         -2.2772260623       -3.1878783673        0.3867040398
 C         -2.0225802905       -2.8622158952       -1.7022252153
 C         -0.9604144689       -3.0068443504       -2.7464887221
 C         -1.6325206371       -4.2250307987       -2.1936131149
 H         -2.3245306518       -4.7682464542       -2.8189337393
 H         -1.0604659199       -4.8465984533       -1.5211285149
 H         -1.2011348421       -2.6868317045       -3.7487556102
 H          0.0638204994       -2.8192668893       -2.4653134177
 H         -2.9787545685       -2.4786290358       -2.0431892162
 O         -1.6954746028        0.0241412845       -1.8801528701
