  62
        -98.94092444
 C         -2.2794923685       -0.5355970281        0.1323133820
 C         -3.5543852967       -1.0597052536        0.4543864910
 C         -4.6331729557       -0.0754845786        0.6098812428
 C         -4.3538548987        1.2331013503        0.4668093550
 C         -5.3671626355        2.3377188915        0.5411115255
 C         -5.9484069070        2.6504422501       -0.8449871491
 C         -6.4216580185        1.4142285915       -1.6098125646
 H         -6.8392941614        1.7591898800       -2.5581831013
 H         -5.5570610214        0.7903163454       -1.8481361766
 C         -7.4669188072        0.5699525036       -0.8674136740
 H         -8.2617867381        0.3030149756       -1.5669421424
 H         -7.9211476523        1.1598690309       -0.0705859784
 C         -6.9281909985       -0.7381782467       -0.2854398753
 H         -6.3905755889       -1.2898713700       -1.0606990034
 H         -7.7803710717       -1.3504860337        0.0210022291
 C         -6.0056895927       -0.5966529689        0.9318131582
 H         -6.4868728083        0.0262849983        1.6883321046
 H         -5.8551850435       -1.5951781538        1.3523874394
 H         -5.1771292147        3.1461205654       -1.4391978769
 H         -6.7810486907        3.3452407298       -0.7212272484
 H         -4.8740466914        3.2307754399        0.9285726699
 H         -6.1635989242        2.0483042532        1.2238620858
 O         -3.1097626401        1.7010197984        0.1870925503
 C         -2.0432111685        0.8326820643        0.0035838881
 O         -0.9629561432        1.3959664133       -0.2599661886
 O         -3.7772363788       -2.2905870533        0.6085882614
 C         -1.1221731556       -1.4966583826       -0.0708155493
 C         -0.0086802792       -1.1709987740        0.8927930109
 C         -0.3012581778       -1.1155045213        2.2536885193
 C          0.6795652232       -0.8039553099        3.1738883134
 C          1.9709637368       -0.5341903536        2.7554197794
 C          2.2772571706       -0.5983911640        1.4018158298
 C          1.2917467672       -0.9285392377        0.4806545752
 H          1.5522083048       -0.9651403936       -0.5627600503
 N          3.5987290501       -0.3770344635        0.9652790362
 S          3.8986342529        0.5842549390       -0.3910204860
 O          3.4416358808        1.9377365274       -0.1617085306
 O          3.4006152501       -0.0779264715       -1.5685390693
 C          5.6822421600        0.5363149691       -0.3924803633
 C          6.4010936188        1.6317161883        0.0457741522
 C          7.7857542257        1.5644849996        0.0572610274
 C          8.4239722994        0.4081063396       -0.3645173729
 C          7.6886358068       -0.6836000299       -0.8024736037
 C          6.3045399398       -0.6220652170       -0.8179611845
 H          5.6920902167       -1.4409988811       -1.1570617567
 H          8.1886094701       -1.5800998365       -1.1319501170
 H          9.5013164330        0.3580109021       -0.3544685228
 H          8.3596830294        2.4127349231        0.3940851074
 H          5.8615789453        2.5115803083        0.3579262604
 H          4.1904363569       -0.0588601468        1.7228777872
 H          2.7357648141       -0.2773379726        3.4730963682
 H          0.4371064579       -0.7604791053        4.2252113631
 H         -1.3146601898       -1.3124443887        2.5771025869
 H         -1.5193097002       -2.4905695892        0.1848957772
 C         -0.6907743146       -1.5046536795       -1.5217030119
 C         -0.0364487589       -2.7199025613       -2.1051779721
 C         -1.4365851528       -2.3602209070       -2.4996665974
 H         -1.6120638814       -1.9742848421       -3.4927133560
 H         -2.2473764938       -2.9608044963       -2.1136212542
 H          0.7558521521       -2.5783002803       -2.8247685439
 H          0.1041008677       -3.5698993356       -1.4547453314
 H         -0.3542851395       -0.5312262565       -1.8639218073
