  62
        -98.93703012
 C         -1.9468048478       -1.5459606677        0.0300640751
 C         -1.6882090053       -0.2128606191       -0.3626052380
 C         -2.8642666273        0.6522474090       -0.5799256064
 C         -4.0994101828        0.1597190821       -0.3762279928
 C         -5.4662187330        0.7887090379       -0.5488878715
 C         -5.6155267976        2.2993243012       -0.7113470118
 C         -5.2477394323        3.1178498678        0.5264297180
 H         -5.2863483286        4.1760896922        0.2590499183
 H         -6.0047994124        2.9418272877        1.2948868067
 C         -3.8863077996        2.8102976214        1.1454747394
 H         -3.7660152479        3.4528625448        2.0219517945
 H         -3.8705383614        1.7778580692        1.5008106035
 C         -2.6826466019        3.0394194938        0.2335698015
 H         -2.6988262997        4.0628604460       -0.1462412743
 H         -1.7829942432        2.9193190930        0.8435311052
 C         -2.5658980424        2.0744587091       -0.9583614349
 H         -3.1913001714        2.3923767855       -1.7888566714
 H         -1.5285160715        2.0874245709       -1.3057582957
 H         -6.6714658742        2.4849734840       -0.9263831523
 H         -5.0554326648        2.6416115304       -1.5765979821
 H         -5.9089339179        0.3013830272       -1.4248365301
 H         -6.0549762177        0.4613642906        0.3140328993
 O         -4.2992507196       -1.1324934139        0.0199662570
 C         -3.2479224500       -2.0022776197        0.2467500312
 O         -3.5954688554       -3.1328546208        0.6417561927
 H          1.8508535533       -2.0852141571       -0.3256715539
 C          1.5702617141       -1.7364400797        0.6536195200
 C          0.2667585170       -1.8641639638        1.1067112541
 C         -0.0529912281       -1.3698691522        2.3695259498
 C          0.9036555837       -0.7538072599        3.1516814668
 C          2.2022684210       -0.6194458861        2.6919519891
 C          2.5342697094       -1.1129793825        1.4363303833
 N          3.8573018795       -1.0257924036        0.9670357198
 S          4.2315245026       -0.3796705423       -0.5298808832
 O          3.5285806317       -1.0895492471       -1.5658451542
 O          5.6769566344       -0.4306191461       -0.5902427418
 C          3.7135672598        1.3262332817       -0.4491325602
 C          4.6818764426        2.3007333090       -0.2978114417
 C          4.2925523349        3.6255311494       -0.1893207723
 C          2.9450578917        3.9519565282       -0.2240046266
 C          1.9874907865        2.9608246080       -0.3705648411
 C          2.3679669827        1.6320359019       -0.4852631704
 H          1.6306098503        0.8535029285       -0.5982164539
 H          0.9369758067        3.2043434289       -0.3952722787
 H          2.6388870483        4.9826828077       -0.1369874405
 H          5.0376127044        4.3966885713       -0.0764881363
 H          5.7169262087        1.9997263423       -0.2772762436
 H          4.5076161959       -0.6660812717        1.6515793803
 H          2.9530795311       -0.1386304636        3.3008560889
 H          0.6378040532       -0.3718427458        4.1259246724
 H         -1.0699143455       -1.4710156958        2.7254461975
 C         -0.8218368329       -2.5297815174        0.2995783710
 H         -1.2739839181       -3.3136143935        0.9305497830
 C         -0.2968027430       -3.2263854673       -0.9467348611
 C         -1.1830776229       -3.4816605634       -2.1282683141
 C         -0.0595804382       -2.4966734320       -2.2329162077
 H          0.8115962199       -2.7567985625       -2.8168388366
 H         -0.2967921268       -1.4452636817       -2.2623067724
 H         -1.0919608710       -4.4269735307       -2.6418352660
 H         -2.1943007118       -3.1028535560       -2.0878860116
 H          0.4082770732       -4.0153379426       -0.7011885612
 O         -0.5333505676        0.2539495982       -0.5325846497
