  62
        -98.94847654
 C          0.8337864185        1.2255099943        0.5680274268
 C          1.2017758462        0.5354806376       -0.6117560721
 C          2.1417636607       -0.5770795255       -0.4244219095
 C          2.4765846532       -0.9650556057        0.8189004180
 C          3.4183000832       -2.0839513628        1.1732359167
 C          4.8943566570       -1.6621778342        1.1894677986
 C          5.5117375629       -1.4187374526       -0.1884661924
 H          6.5915343028       -1.3430368533       -0.0456603609
 H          5.3277979285       -2.2844113557       -0.8253111013
 C          5.0165039434       -0.1460020434       -0.8898407549
 H          4.5421490820        0.5122048792       -0.1580813424
 H          5.8702892565        0.3976116147       -1.3007534514
 C          4.0405032520       -0.3928912401       -2.0407444197
 H          4.5484221924       -0.9381476719       -2.8390687449
 H          3.7315274858        0.5768840112       -2.4386326046
 C          2.7763601417       -1.1693377049       -1.6457272808
 H          2.0552137608       -1.0910035142       -2.4619108077
 H          3.0183089943       -2.2185094912       -1.4833949225
 H          5.4569484165       -2.4591454754        1.6813526024
 H          4.9939550071       -0.7611316012        1.7993181094
 H          3.2898569013       -2.9134160288        0.4779014923
 H          3.1433821021       -2.4197184071        2.1755661721
 O          1.9724427315       -0.3691892604        1.9343953544
 C          1.1986204451        0.7767814828        1.8363306802
 O          0.8967782658        1.2904469279        2.9341148541
 O          0.7902194426        0.8435162247       -1.7589604138
 C          0.0187737891        2.5019636421        0.4727160303
 C         -1.3083580130        2.2393702888       -0.1940098835
 C         -1.8146311514        3.0177215747       -1.2268730442
 C         -3.0522681263        2.7313660576       -1.7760978554
 C         -3.8081124409        1.6728372884       -1.3082414116
 C         -3.3142875041        0.8949106038       -0.2662072721
 C         -2.0736143664        1.1806094520        0.2797542651
 H         -1.7003271081        0.5783135209        1.0960871558
 N         -4.0691190752       -0.1685049896        0.2485534029
 S         -3.3386673626       -1.5022352140        0.9191683004
 O         -4.3739471997       -2.5157675823        0.8997140020
 O         -2.8028830734       -1.1903536998        2.2212200226
 C         -2.0310933424       -2.0067103571       -0.1842258751
 C         -2.2157489719       -1.9317637935       -1.5501568432
 C         -1.2329430369       -2.4327444569       -2.3877694319
 C         -0.0972873072       -3.0161639218       -1.8500854345
 C          0.0756045129       -3.0802805604       -0.4769431574
 C         -0.8961417872       -2.5659088688        0.3651714180
 H         -0.7938327778       -2.5840815573        1.4393710152
 H          0.9580863124       -3.5324291409       -0.0546755946
 H          0.6577300609       -3.4223578732       -2.5040448440
 H         -1.3588266333       -2.3711008170       -3.4566050746
 H         -3.1130020726       -1.4874666245       -1.9485668115
 H         -4.9091630065       -0.3995086297       -0.2602588379
 H         -4.7738487810        1.4509591774       -1.7356601690
 H         -3.4324947152        3.3402899125       -2.5819711684
 H         -1.2402562372        3.8471140459       -1.6045215848
 H         -0.1839634434        2.8102877857        1.5094017160
 C          0.8382732877        3.5803915167       -0.2069731637
 C          0.6121266802        5.0242117225        0.1229314646
 C          1.8530537479        4.3319873443        0.5989446740
 H          2.7961606217        4.5839757213        0.1375317483
 H          1.9334524565        4.0851364248        1.6480833975
 H          0.7067262549        5.7555710775       -0.6654764780
 H         -0.1483520119        5.2570792628        0.8529623519
 H          1.1032360950        3.3216369637       -1.2256764789
