  62
        -98.93438988
 C         -2.4367587894       -1.1798294655        0.0366449232
 C         -2.4781194515        0.0172196513       -0.7140571602
 C         -3.8173584847        0.5813399035       -0.9666696303
 C         -4.8990094385       -0.0645017400       -0.4968946718
 C         -6.3366266500        0.3666025447       -0.5913537348
 C         -6.7505136582        1.1514505857        0.6652233090
 C         -6.4683416764        2.6524173372        0.6102892125
 H         -7.1596061441        3.1214320464       -0.0929324700
 H         -6.6823423101        3.0596742087        1.6011466194
 C         -5.0390321343        3.0373996536        0.2192572732
 H         -4.3270701830        2.3915102391        0.7365167480
 H         -4.8600571397        4.0569440106        0.5662348563
 C         -4.7908267387        2.9782736797       -1.2953635591
 H         -5.7474831964        2.8897396854       -1.8098670882
 H         -4.3470670587        3.9195522910       -1.6262646305
 C         -3.8487394365        1.8581040927       -1.7617528138
 H         -4.0731034499        1.6138072641       -2.8055947316
 H         -2.8151764913        2.2188730213       -1.7424174171
 H         -6.2325473960        0.7100274059        1.5205154869
 H         -7.8216895581        1.0149414764        0.8264355909
 H         -6.5069393938        0.9473880405       -1.4927818393
 H         -6.9322071586       -0.5471707472       -0.6424510894
 O         -4.8124369112       -1.2255003155        0.2099018374
 C         -3.5927183395       -1.8065305888        0.4999799513
 O         -3.6653263729       -2.8573826037        1.1687726321
 H          1.5794372507       -1.3199523387       -0.0561148774
 C          1.1487798462       -0.7288847562        0.7339850441
 C         -0.1918430335       -0.8579433058        1.0618413767
 C         -0.7017631976       -0.0824165909        2.0999801307
 C          0.1024456493        0.8202606770        2.7675115615
 C          1.4336510401        0.9652119004        2.4192257714
 C          1.9601027925        0.1786909026        1.4015904740
 N          3.3249464026        0.2665396838        1.0769762578
 S          3.8489660360        0.0270101711       -0.5084729121
 O          3.1558951209        0.9142612837       -1.4154515343
 O          3.7895720310       -1.3798433003       -0.8145003853
 C          5.5523920418        0.5277305803       -0.3359512567
 C          5.9340773344        1.7966897928       -0.7280056295
 C          7.2556103390        2.1808751172       -0.5622389332
 C          8.1672207253        1.2956012465       -0.0071139118
 C          7.7694863163        0.0246633706        0.3810224700
 C          6.4502890356       -0.3661828645        0.2164347365
 H          6.0974095912       -1.3455992534        0.4941216398
 H          8.4819485593       -0.6617168684        0.8094233605
 H          9.1948334918        1.5970916301        0.1209595119
 H          7.5684256027        3.1668092904       -0.8663279568
 H          5.1923211991        2.4478683592       -1.1622732427
 H          3.7644707754        1.0846212435        1.4771004196
 H          2.0598516471        1.6777910439        2.9343350449
 H         -0.3117393689        1.4232655449        3.5617743650
 H         -1.7445069030       -0.1903076642        2.3680716569
 C         -1.1033567555       -1.8303817652        0.3527345184
 H         -1.3244701071       -2.6577853933        1.0440778336
 C         -0.4951220608       -2.4048141472       -0.9102843661
 C          0.3718202066       -3.6249254867       -0.8461104241
 C         -1.0031554840       -3.7127333047       -1.4351794960
 H         -1.1027732903       -3.8360182376       -2.5031629942
 H         -1.7745787176       -4.2077832050       -0.8629747445
 H          1.2254337879       -3.6836692352       -1.5051008166
 H          0.5354750346       -4.0692821701        0.1241774637
 H         -0.2427366335       -1.6384626450       -1.6359257392
 O         -1.4468448072        0.5977431356       -1.1467321292
