  62
        -98.94523984
 C         -2.4536338318       -1.2204670877       -0.0833006637
 C         -3.4938301691       -0.7726005748        0.7712443235
 C         -4.3346990671        0.3103759275        0.2523356349
 C         -4.0935091582        0.8124799558       -0.9722343942
 C         -4.8711193815        1.9084394742       -1.6488940336
 C         -4.4279841892        3.3229255071       -1.2504742494
 C         -4.8293202472        3.7569951608        0.1599016305
 H         -5.8985514455        3.5938194746        0.2983793822
 H         -4.6521391678        4.8323159182        0.2256037117
 C         -4.0497300910        3.0596508130        1.2835838885
 H         -3.7274853883        3.8019490228        2.0173414683
 H         -3.1445528672        2.6056979567        0.8723352312
 C         -4.8424469606        1.9920307694        2.0380080612
 H         -5.6755622689        2.4602973057        2.5666619766
 H         -4.1823610214        1.5389305143        2.7818482210
 C         -5.3964972985        0.8700067933        1.1502706827
 H         -6.2378475010        1.2356943941        0.5623094270
 H         -5.7447369547        0.0613310318        1.7972867753
 H         -4.8774846192        4.0179895450       -1.9634803152
 H         -3.3427167312        3.3923715059       -1.3587136829
 H         -4.7099225563        1.7869260317       -2.7222193631
 H         -5.9343891211        1.7864357706       -1.4405755414
 O         -3.0924617578        0.3502112624       -1.7665064620
 C         -2.2349432072       -0.6542610142       -1.3391798580
 O         -1.3533317253       -0.9467129838       -2.1714422264
 H          0.6728833261       -2.0410012795       -1.1647633050
 C          0.8145932706       -1.6043417957       -0.1887175899
 C         -0.2001184081       -1.6788777830        0.7530896056
 C         -0.0060668660       -1.0725316432        1.9911356986
 C          1.1753872295       -0.4145614734        2.2772996864
 C          2.1825212591       -0.3349121321        1.3310310645
 C          1.9903620296       -0.9195622881        0.0870614135
 N          2.9986114575       -0.8182881363       -0.8897479627
 S          3.5962815727        0.7194622187       -1.2141147590
 O          2.6254334959        1.7470392066       -0.9146212914
 O          4.0787042537        0.6632171863       -2.5770794544
 C          4.9943265442        0.8603442625       -0.1181313609
 C          5.0764570390        1.9186582243        0.7654071437
 C          6.1772676245        2.0085176428        1.6034291342
 C          7.1718484393        1.0446099844        1.5421137611
 C          7.0760813276       -0.0104377891        0.6467880184
 C          5.9787111341       -0.1056606810       -0.1938700213
 H          5.8671312107       -0.9060657010       -0.9059594852
 H          7.8517372052       -0.7578149582        0.6015645120
 H          8.0266922377        1.1163805052        2.1958601410
 H          6.2532868955        2.8283970609        2.2995117218
 H          4.2760849295        2.6415023190        0.7810449057
 H          2.7562028800       -1.2828628289       -1.7538754853
 H          3.1013038199        0.1878370755        1.5409834050
 H          1.3132528500        0.0463038306        3.2435978505
 H         -0.8030518870       -1.1102148724        2.7205257586
 C         -1.5327607969       -2.3123250090        0.4387873435
 H         -1.9844819619       -2.6422094939        1.3838569175
 C         -1.4434821163       -3.4990746055       -0.4968321926
 C         -0.8602189019       -4.7836038499        0.0090372293
 C         -2.3304279649       -4.6835045172       -0.2619514447
 H         -2.7348347831       -5.2005045309       -1.1192605722
 H         -3.0045884020       -4.6435818617        0.5809534505
 H         -0.5351220569       -4.8096464202        1.0380056268
 H         -0.2525942907       -5.3732310723       -0.6601600031
 H         -1.2517629812       -3.2253516639       -1.5269123823
 O         -3.7109544698       -1.2605217345        1.9115724016
