  62
        -98.93758515
 C         -2.4764697895       -0.9513271076        0.5985617134
 C         -3.5242311471       -0.9312413857       -0.3544350188
 C         -4.7391384113       -0.2010519992        0.0420640974
 C         -4.7898042844        0.4101550304        1.2386388364
 C         -5.9423937794        1.2312096615        1.7381101407
 C         -5.7784259026        2.7108391848        1.3637061087
 C         -5.4347907597        2.9424370690       -0.1077714097
 H         -5.3746159067        4.0221122513       -0.2614559060
 H         -4.4419398265        2.5341973704       -0.3111643964
 C         -6.4418778038        2.3407724089       -1.0977762897
 H         -6.6511856384        3.0781475601       -1.8756601116
 H         -7.3831899734        2.1317171901       -0.5881432143
 C         -5.9563849304        1.0738985611       -1.8044655569
 H         -4.9688133340        1.2516380100       -2.2378032243
 H         -6.6417935524        0.8609355040       -2.6292326142
 C         -5.8815203693       -0.1872965793       -0.9348204957
 H         -6.8317135450       -0.3343911704       -0.4174933046
 H         -5.7168883183       -1.0394023289       -1.6007158483
 H         -6.7048984091        3.2332316723        1.6091923054
 H         -4.9769220488        3.1355395991        1.9725151566
 H         -6.8676301720        0.8404921196        1.3189888105
 H         -5.9807836267        1.1430528701        2.8251987651
 O         -3.7599483215        0.3835384118        2.1222092803
 C         -2.5900457855       -0.2919128514        1.8269666606
 O         -1.7314137094       -0.2421282083        2.7313513726
 H          1.2458776345       -0.7281796743        1.1254002426
 C          1.0148396350       -0.4639660986        0.1019599032
 C         -0.1982066508       -0.8582686816       -0.4436161708
 C         -0.4875347629       -0.5009806468       -1.7560750154
 C          0.4164986874        0.2412708571       -2.4941744195
 C          1.6233226591        0.6377148585       -1.9454979787
 C          1.9242457530        0.2823943078       -0.6376752080
 N          3.1428551365        0.6930601713       -0.0691743728
 S          4.5238243127        0.5703402049       -1.0366666331
 O          4.6171091051        1.7576219233       -1.8489717698
 O          4.5146741824       -0.6851879152       -1.7525918703
 C          5.8126367326        0.5741007938        0.1936757959
 C          6.2835909694        1.7832830979        0.6688237611
 C          7.2709186258        1.7809148611        1.6413524782
 C          7.7667874002        0.5773685053        2.1203130637
 C          7.2844716136       -0.6282159104        1.6331479528
 C          6.2965571670       -0.6332644973        0.6611934524
 H          5.9001700579       -1.5461805448        0.2460706410
 H          7.6741452337       -1.5620757369        2.0052354664
 H          8.5364645155        0.5784557392        2.8758818093
 H          7.6508206327        2.7156235870        2.0210443022
 H          5.8755557057        2.6931892615        0.2606681890
 H          3.2947909167        0.2924995816        0.8462826859
 H          2.3385243843        1.2105350486       -2.5141553621
 H          0.1802356651        0.5142701834       -3.5120120227
 H         -1.4289274141       -0.8039221201       -2.1880665092
 C         -1.1598341533       -1.6809841609        0.3815412156
 H         -0.7228373707       -1.7959349952        1.3827495041
 C         -1.3321392148       -3.0621389182       -0.2213755597
 C         -0.2479624352       -4.0767553703       -0.0253667383
 C         -1.5591998408       -4.2333512320        0.6837680241
 H         -2.2339083888       -5.0111108273        0.3593492908
 H         -1.5900681246       -4.0446398076        1.7472733907
 H          0.6123166864       -3.7839040405        0.5576714226
 H         -0.0179958524       -4.7477350664       -0.8386496974
 H         -1.8532112105       -3.0570400128       -1.1690317369
 O         -3.4772338476       -1.4883402355       -1.4830393158
