  62
        -98.93848676
 C         -2.5392935463       -1.1914458152        0.2199817378
 C         -2.6772347880       -0.3468866558       -0.9057259753
 C         -3.5406122629        0.8366193332       -0.7360318524
 C         -4.1317860344        1.0613088502        0.4523635483
 C         -5.0852288443        2.1496022834        0.9006884345
 C         -5.2627786043        3.4216443310        0.0754701344
 C         -4.0325775039        4.3269573489        0.0198455181
 H         -4.2421152715        5.1449395397       -0.6727173321
 H         -3.8760414364        4.7617496319        1.0104125177
 C         -2.7298767612        3.6471525378       -0.3951737665
 H         -2.4563853045        2.8944255702        0.3476514345
 H         -1.9411002300        4.4044581152       -0.3887336610
 C         -2.7407726993        2.9991340770       -1.7784768878
 H         -1.7158515226        2.6938470032       -2.0064546559
 H         -3.0456411545        3.7343156484       -2.5255675747
 C         -3.6343381475        1.7546252119       -1.9203838439
 H         -4.6683156622        2.0282755153       -2.1151923008
 H         -3.2774931393        1.1805938478       -2.7803854829
 H         -6.0678080892        3.9891643038        0.5502607783
 H         -5.6004169053        3.1760470784       -0.9269498730
 H         -4.7706616588        2.4211508089        1.9135453841
 H         -6.0623778509        1.6645321785        1.0025718052
 O         -3.9626706023        0.2158940829        1.5130745973
 C         -3.1627760760       -0.9104276238        1.4325385088
 O         -3.0830107083       -1.5631035653        2.4942905862
 O         -2.1104782420       -0.5676925287       -2.0067201332
 C         -1.6612218074       -2.4252949119        0.1361391077
 C         -0.2489326153       -2.0443914887       -0.2406181880
 C          0.5222867302       -2.7780134248       -1.1325741031
 C          1.8194179752       -2.3905567833       -1.4221171103
 C          2.3749926105       -1.2696730274       -0.8339036348
 C          1.6176345906       -0.5355155682        0.0695725060
 C          0.3227345913       -0.9319430164        0.3646504639
 H         -0.2630042159       -0.3604524785        1.0757882049
 N          2.1710789894        0.6122623802        0.6674385848
 S          3.6378153193        0.4390411769        1.4696217299
 O          3.7987636966       -0.8988515972        1.9910642543
 O          3.6697502597        1.5141888989        2.4373921322
 C          4.8557822350        0.7549652204        0.2103876505
 C          4.7902928253        1.9538188951       -0.4723252245
 C          5.7365431786        2.2194103085       -1.4491499846
 C          6.7281313464        1.2888002593       -1.7225722368
 C          6.7820470669        0.0914129857       -1.0257091204
 C          5.8375491777       -0.1813368704       -0.0482380138
 H          5.8353896836       -1.1008434682        0.5149644568
 H          7.5538456439       -0.6303373061       -1.2395865671
 H          7.4632874062        1.4984907569       -2.4834091810
 H          5.6975642416        3.1492662110       -1.9933795436
 H          4.0058959848        2.6503798038       -0.2271492645
 H          1.5162843846        1.1196944313        1.2450634278
 H          3.3809322604       -0.9591869701       -1.0646559858
 H          2.4046059818       -2.9679127041       -2.1213942504
 H          0.1062529383       -3.6530419114       -1.6041844241
 H         -1.6360106451       -2.8506830956        1.1510250568
 C         -2.2813858682       -3.4407221387       -0.8020144758
 C         -2.0920002693       -4.9080122599       -0.5652008423
 C         -3.4244113692       -4.2731027767       -0.3068425555
 H         -4.2394335782       -4.4854316449       -0.9822460958
 H         -3.7342063514       -4.1272097983        0.7182051394
 H         -1.9956115143       -5.5604976184       -1.4199012155
 H         -1.5002921962       -5.2055363388        0.2874888770
 H         -2.3266741415       -3.0856319706       -1.8250241529
