  62
        -98.93944230
 C         -2.5161206013       -0.8202284250        0.7449018805
 C         -3.1575145458       -0.3806047282       -0.4389825338
 C         -3.7973359722        0.9394286678       -0.3620754007
 C         -3.7432780393        1.6468380198        0.7808405476
 C         -4.3698000688        2.9937496855        1.0206619520
 C         -3.5169051445        4.1754427587        0.5389728935
 C         -3.4461643408        4.3510166174       -0.9784809659
 H         -4.4562403853        4.3649106965       -1.3889684610
 H         -3.0044765984        5.3314124776       -1.1673433272
 C         -2.6095363040        3.2857270456       -1.7012145669
 H         -1.9469725727        3.7692873896       -2.4225324860
 H         -1.9720281691        2.7691359668       -0.9797122161
 C         -3.4294948100        2.2469478979       -2.4664692218
 H         -3.9683421308        2.7336368233       -3.2825286366
 H         -2.7394227539        1.5204577551       -2.9036188835
 C         -4.4399353590        1.4797699685       -1.6037117225
 H         -4.8088373320        0.6300330145       -2.1832501981
 H         -5.2824147021        2.1223182413       -1.3486938061
 H         -3.9468766148        5.0831849007        0.9684717963
 H         -2.5069518679        4.0638130980        0.9400556308
 H         -5.3490556604        3.0316870442        0.5428091187
 H         -4.5059607395        3.0850517732        2.1004316731
 O         -3.1027532298        1.1939152781        1.8920860977
 C         -2.4573378287       -0.0313628702        1.8936647430
 O         -1.8726215709       -0.3014125183        2.9638689067
 O         -3.2037644698       -1.0499619649       -1.5027390432
 C         -1.8121987522       -2.1662481965        0.7836398420
 C         -0.6372471328       -2.1378493795       -0.1650802453
 C         -0.4950115521       -2.9954827098       -1.2462707236
 C          0.6086163844       -2.8938632427       -2.0769371734
 C          1.5889612089       -1.9472390608       -1.8469345274
 C          1.4628233712       -1.0913402988       -0.7591489232
 C          0.3573812992       -1.1953344965        0.0711268584
 H          0.2539838703       -0.5309142690        0.9210419173
 N          2.4515325312       -0.1159328712       -0.5164723639
 S          4.0580925505       -0.6417412480       -0.5814224179
 O          4.4579955737       -0.7101933844       -1.9644256409
 O          4.2127956103       -1.8609800868        0.1806483713
 C          4.9020556738        0.7064925665        0.2205324624
 C          5.1395356358        1.8615675582       -0.5003341038
 C          5.7848519914        2.9178208689        0.1225581715
 C          6.1798857124        2.8021816261        1.4472571386
 C          5.9348716803        1.6364647279        2.1571721737
 C          5.2879221394        0.5766893290        1.5409303571
 H          5.0837791156       -0.3509699482        2.0514366753
 H          6.2453976860        1.5482719106        3.1858559909
 H          6.6847640764        3.6245766352        1.9290070230
 H          5.9793277492        3.8252757581       -0.4259560379
 H          4.8246530946        1.9022998429       -1.5299179145
 H          2.2800174776        0.3794464082        0.3485024192
 H          2.4537814025       -1.8653826784       -2.4851710987
 H          0.7061079524       -3.5629316526       -2.9187468422
 H         -1.2491066981       -3.7385491409       -1.4453703663
 H         -1.4144754568       -2.2695338172        1.8036993977
 C         -2.7867934205       -3.2948786369        0.5266511922
 C         -2.4695136184       -4.6763972774        1.0119004663
 C         -3.5442404667       -3.8750521899        1.6814885300
 H         -4.5737215761       -4.1628113796        1.5300938783
 H         -3.3450266283       -3.4683745155        2.6625445325
 H         -2.7622454843       -5.5179674671        0.4026512362
 H         -1.5384592146       -4.8181370225        1.5398967031
 H         -3.3150170925       -3.1898516397       -0.4132100717
