  62
        -98.93835765
 C         -1.9216986201       -0.8518777946        0.1075719254
 C         -2.3632750346        0.4910904216        0.1073578347
 C         -3.7800168959        0.7103373644        0.4553078934
 C         -4.5514948032       -0.3474118971        0.7601397723
 C         -6.0204596635       -0.3453628866        1.0812550263
 C         -6.8523912609       -0.6060750051       -0.1859507046
 C         -7.1972187306        0.6417228760       -0.9979778938
 H         -7.6675099380        0.3063097063       -1.9252125283
 H         -7.9355425142        1.2325583987       -0.4517402795
 C         -6.0114098469        1.5448433536       -1.3478356411
 H         -5.1620196731        0.9346010163       -1.6604369028
 H         -6.2994957364        2.1586358334       -2.2036392369
 C         -5.5944203960        2.4685328066       -0.1936501185
 H         -6.3743581181        2.4601987029        0.5676752422
 H         -5.5296733342        3.4956273515       -0.5589020088
 C         -4.2389373356        2.1428930604        0.4525002450
 H         -3.4455716721        2.6847349936       -0.0723095190
 H         -4.2371111655        2.5117866904        1.4836931339
 H         -6.2981233139       -1.3106983056       -0.8112261416
 H         -7.7875366941       -1.0906325301        0.1018712150
 H         -6.1878721511       -1.1658947675        1.7819830558
 H         -6.3095163366        0.5869996819        1.5569500865
 O         -4.0790954290       -1.6244692502        0.7633036789
 C         -2.7666657563       -1.9107864379        0.4384797209
 O         -2.4743469054       -3.1227483537        0.4849715893
 H          1.5557661388        0.6233847271       -0.8117302037
 C          1.4320116715        0.4155343483        0.2370833096
 C          0.4536552312       -0.4605192950        0.6774215337
 C          0.3178164217       -0.6773618117        2.0471742262
 C          1.1291783622       -0.0205440969        2.9505227333
 C          2.1009843338        0.8600950958        2.5071612416
 C          2.2478303498        1.0816546296        1.1436990880
 N          3.2089418063        1.9902387034        0.6745442576
 S          4.1643064400        1.6428806763       -0.6499432431
 O          5.2196723346        2.6303864647       -0.5999528782
 O          3.3735487093        1.6140370976       -1.8529215638
 C          4.8334935959        0.0265787127       -0.3039559320
 C          5.9275245362       -0.0620705219        0.5351045444
 C          6.4232820315       -1.3135914164        0.8613822716
 C          5.8141536950       -2.4506936132        0.3521438541
 C          4.7170980607       -2.3445703395       -0.4884702744
 C          4.2184221069       -1.0948670665       -0.8217228185
 H          3.3708114099       -0.9737268972       -1.4754577468
 H          4.2459726414       -3.2295021943       -0.8858699789
 H          6.1978114139       -3.4255113003        0.6088935353
 H          7.2795340351       -1.3994989781        1.5108176905
 H          6.3783443000        0.8467990045        0.8994201311
 H          3.7499046827        2.4371816075        1.4000508438
 H          2.7298341483        1.3829405996        3.2116577525
 H          1.0066011490       -0.1941459282        4.0089996617
 H         -0.4461371163       -1.3617457147        2.3912970342
 C         -0.4846816771       -1.1836344626       -0.2571858348
 H         -0.3735545793       -2.2642447794       -0.0861122225
 C         -0.2381051874       -0.8966901782       -1.7229493676
 C          0.7914372444       -1.6794337689       -2.4789316357
 C         -0.6663315786       -1.9084215036       -2.7414315802
 H         -1.0869504937       -1.5573250010       -3.6718102790
 H         -1.1153716436       -2.8205194027       -2.3753145913
 H          1.3761273420       -1.1699484988       -3.2309474938
 H          1.3273214232       -2.4465020609       -1.9401429077
 H         -0.3727562050        0.1487173886       -1.9769324503
 O         -1.6178890158        1.4656773491       -0.1758192747
