  62
        -98.94431827
 C         -2.6395716510       -1.0978663548        0.1886497088
 C         -2.7199055157       -0.2901035246       -0.9718164474
 C         -3.5394266846        0.9217837763       -0.8455729975
 C         -4.1680577486        1.1886558456        0.3136775033
 C         -5.0581961008        2.3710177561        0.5862594220
 C         -4.3009242622        3.6419893516        0.9952646908
 C         -3.5296747056        4.3308181973       -0.1314533119
 H         -4.1960790699        4.4941824056       -0.9787848713
 H         -3.2282461916        5.3121345745        0.2403216503
 C         -2.2779935628        3.5732571718       -0.5969764118
 H         -1.4409413058        4.2697353858       -0.6828550005
 H         -2.0001320165        2.8324039012        0.1567436095
 C         -2.4262903438        2.8723559572       -1.9476061912
 H         -1.4979414107        2.3351970707       -2.1586999165
 H         -2.5717883177        3.6176716648       -2.7324757660
 C         -3.5807175387        1.8635976257       -2.0107544068
 H         -4.5366017540        2.3853835669       -2.0475487356
 H         -3.4677625043        1.2702626426       -2.9211631707
 H         -5.0368512505        4.3476176640        1.3875712376
 H         -3.6143582253        3.3932918521        1.8082181474
 H         -5.6710357782        2.5778205795       -0.2913908554
 H         -5.7151350093        2.0821720203        1.4095517477
 O         -4.0745683572        0.3779116729        1.4025384470
 C         -3.2902204622       -0.7650509543        1.3753425351
 O         -3.2528644666       -1.3891418381        2.4566860533
 H         -0.3427851345       -0.3293278990        1.0886482879
 C          0.2323245954       -0.9333731058        0.3959299722
 C         -0.3695876052       -2.0366837062       -0.1968430725
 C          0.3866691011       -2.8123988920       -1.0655629960
 C          1.6991208760       -2.4736234273       -1.3467509529
 C          2.2855422389       -1.3618564126       -0.7715122920
 C          1.5439270104       -0.5870925980        0.1109586270
 N          2.1300626279        0.5499486949        0.6965869687
 S          3.6012379069        0.3553143447        1.4850957971
 O          3.7429822406       -0.9812470661        2.0151826415
 O          3.6613162783        1.4368520339        2.4442735822
 C          4.8118308549        0.6397344765        0.2113182131
 C          5.7738944430       -0.3161220729       -0.0499588486
 C          6.7114116118       -0.0691414217       -1.0408865386
 C          6.6703078593        1.1225465306       -1.7483098682
 C          5.6989454350        2.0732810761       -1.4716335179
 C          4.7597314646        1.8334217555       -0.4814486666
 H          3.9909572385        2.5462876478       -0.2336592737
 H          5.6699516836        2.9987056036       -2.0239778013
 H          7.3995475007        1.3118644843       -2.5200996434
 H          7.4676294956       -0.8065046466       -1.2571477904
 H          5.7623473375       -1.2303377011        0.5217487902
 H          1.4933873842        1.0807945322        1.2730886276
 H          3.3040427433       -1.0898338963       -0.9953330070
 H          2.2723436281       -3.0826968917       -2.0288244501
 H         -0.0529492957       -3.6816887244       -1.5261608880
 C         -1.7990296737       -2.3606067573        0.1678725931
 H         -1.8048371498       -2.7493267827        1.1975410165
 C         -2.4349423239       -3.3897031000       -0.7444619080
 C         -2.2894100757       -4.8527066103       -0.4557870394
 C         -3.6071607449       -4.1733823594       -0.2382902975
 H         -4.4183485645       -4.3862581202       -0.9181335679
 H         -3.9269671924       -3.9843242836        0.7765604474
 H         -1.7176287205       -5.1369130116        0.4148509832
 H         -2.1992934241       -5.5362810443       -1.2865341070
 H         -2.4566911356       -3.0684692011       -1.7793970179
 O         -2.1398030431       -0.5632878696       -2.0534934525
