  62
        -98.94658629
 C          2.5021998903        0.3260686493       -0.0056443402
 C          2.3437581304        1.4751644245       -0.8138569771
 C          1.6652045507        2.6114310903       -0.1837587238
 C          1.2454258744        2.5126518171        1.0908772295
 C          0.5064840064        3.5730655719        1.8610748584
 C         -1.0046221136        3.5747697564        1.5885387911
 C         -1.4200667461        4.1644068791        0.2395243535
 H         -2.4972864176        4.3364422779        0.2851992510
 H         -0.9386923930        5.1336813873        0.1017602440
 C         -1.1192216796        3.2573303177       -0.9615170594
 H         -0.9603100240        2.2362870540       -0.6069210050
 H         -1.9876644120        3.2379185825       -1.6248016259
 C          0.0796772896        3.6912680412       -1.8053771348
 H          0.2304118799        2.9482979796       -2.5928328424
 H         -0.1359476814        4.6503333987       -2.2827547592
 C          1.3932530138        3.8230116855       -1.0247883147
 H          2.2103364681        3.9143296372       -1.7452119786
 H          1.3732862342        4.7178205526       -0.4030418710
 H         -1.4803107895        4.1574188775        2.3813614175
 H         -1.3684806483        2.5461353327        1.6609418375
 H          0.6671225917        3.3578513768        2.9197518973
 H          0.9237267381        4.5556269270        1.6372433838
 O          1.4652434339        1.4090808081        1.8534636267
 C          2.0549258062        0.2780920667        1.3153761592
 O          2.1474692719       -0.6821777307        2.1071835013
 H          0.4404806623       -0.7429627057       -0.8972448049
 C          0.7314710782       -1.7526168746       -0.6507250930
 C          2.0774052085       -2.0568539003       -0.4900662888
 C          2.4284712475       -3.3694343415       -0.2028998648
 C          1.4500988568       -4.3352298256       -0.0377795515
 C          0.1094500667       -4.0075306460       -0.1207820379
 C         -0.2513274763       -2.6998345378       -0.4235659883
 N         -1.6077867399       -2.3072790897       -0.5053559494
 S         -2.0998236489       -1.0865722820        0.5640328526
 O         -1.2902969491        0.0877379272        0.3860932544
 O         -2.1764735185       -1.6301567786        1.9055066794
 C         -3.7454294269       -0.7818165004       -0.0498744564
 C         -3.9041960533        0.1027010146       -1.0987821296
 C         -5.1759314717        0.3232032591       -1.6031768435
 C         -6.2614342778       -0.3437985053       -1.0550172867
 C         -6.0867166286       -1.2282074760       -0.0014110943
 C         -4.8171433988       -1.4522273157        0.5076794758
 H         -4.6362108407       -2.1198070116        1.3346892979
 H         -6.9328036284       -1.7424426768        0.4251089557
 H         -7.2500619687       -0.1703895791       -1.4496668930
 H         -5.3147306958        1.0130899545       -2.4199114723
 H         -3.0320803294        0.6034106334       -1.4868843280
 H         -2.2255438361       -3.0973892188       -0.3599030863
 H         -0.6527409300       -4.7528380509        0.0530251382
 H          1.7359093702       -5.3517371015        0.1873221485
 H          3.4676500411       -3.6344797256       -0.0933784958
 C          3.0805886613       -0.9356729981       -0.6196751292
 H          3.2223583489       -0.7075550271       -1.6871281364
 C          4.4264733064       -1.2654964640       -0.0081769059
 C          5.4879571818       -1.9413047530       -0.8228254658
 C          5.6312248917       -0.4955948408       -0.4568526549
 H          6.3690097927       -0.2174115677        0.2805908337
 H          5.4820618122        0.2467219439       -1.2272578538
 H          6.1331368769       -2.6570054329       -0.3358565249
 H          5.2539285725       -2.1814428919       -1.8489123468
 H          4.3510317356       -1.5104999004        1.0457111383
 O          2.7416501103        1.5424880309       -2.0096158688
