  62
        -98.93612375
 C          2.6796830394        0.4273592653       -0.1426463002
 C          2.0310901047        1.1264004946        0.9050984251
 C          1.3273684149        2.3614670813        0.5177133179
 C          1.3377298899        2.7592273049       -0.7659215215
 C          0.5409073189        3.8983230701       -1.3347169156
 C         -0.9222579315        3.4478831812       -1.5270605193
 C         -1.9303929434        4.1850818244       -0.6450886746
 H         -2.0945012019        5.1857835290       -1.0515899457
 H         -2.8747933708        3.6403262016       -0.7079396685
 C         -1.5422938545        4.3362639624        0.8288028524
 H         -0.8383157989        5.1627642237        0.9399585573
 H         -2.4473759300        4.6217875217        1.3692398104
 C         -0.9434172674        3.0927682693        1.4989972649
 H         -1.3316341489        3.0312932772        2.5183000790
 H         -1.2601856721        2.1793303514        0.9921049779
 C          0.5942021898        3.0999136185        1.6026093938
 H          0.8805301157        2.5958860912        2.5304544440
 H          0.9563576238        4.1306915765        1.6573369974
 H         -1.2115077792        3.5893369949       -2.5699649731
 H         -0.9799626293        2.3748147528       -1.3272223306
 H          0.9873172756        4.1631882148       -2.2935774962
 H          0.5960437153        4.7589864844       -0.6719713998
 O          2.0225275298        2.0967820825       -1.7338712028
 C          2.6696073294        0.9076426194       -1.4548846443
 O          3.2139799453        0.3789418501       -2.4469434474
 O          2.0179022998        0.7576660046        2.1103433242
 C          3.2962169746       -0.9560643990        0.0046517408
 C          2.2423314488       -1.9794322194       -0.3570258240
 C          2.5212675983       -3.0347983539       -1.2166046459
 C          1.5214679107       -3.9113841967       -1.6000874469
 C          0.2221482013       -3.7333463984       -1.1610311606
 C         -0.0637906266       -2.6865691118       -0.2912675613
 C          0.9510381839       -1.8420205311        0.1302739461
 H          0.7109370094       -1.0420521134        0.8139983697
 N         -1.3699528868       -2.4564619106        0.1693458523
 S         -1.8393868531       -0.8447294609        0.3915239358
 O         -1.2896408711       -0.0132263243       -0.6554733027
 O         -1.5470902652       -0.4668645194        1.7496061770
 C         -3.6054970613       -0.9965905107        0.1920778714
 C         -4.3508761706       -1.4796920787        1.2513728488
 C         -5.7189592881       -1.6327461324        1.0929734328
 C         -6.3158478277       -1.3020728477       -0.1148303370
 C         -5.5555143926       -0.8158147253       -1.1676402166
 C         -4.1859610290       -0.6625946359       -1.0164764017
 H         -3.5546314613       -0.2828063588       -1.8040472701
 H         -6.0221247267       -0.5556094576       -2.1040163418
 H         -7.3809486022       -1.4210816049       -0.2353949082
 H         -6.3136960013       -2.0075752925        1.9101682561
 H         -3.8431217036       -1.7124026597        2.1728591499
 H         -2.0673570578       -2.9876725874       -0.3340560299
 H         -0.5660479705       -4.3927043762       -1.4913218778
 H          1.7501252818       -4.7245906619       -2.2720148329
 H          3.5217669820       -3.1489111599       -1.6061886444
 H          4.0921311725       -1.0196313727       -0.7514081295
 C          3.8985169988       -1.2616436570        1.3596302141
 C          4.9927706319       -2.2810264704        1.4558887647
 C          5.3009099754       -0.8284038973        1.6575103601
 H          5.5265037187       -0.4759084107        2.6523534652
 H          5.8370085703       -0.3070429362        0.8777430099
 H          5.0099203404       -2.9342949668        2.3144978456
 H          5.3291231326       -2.7457014200        0.5415439653
 H          3.1820131365       -1.2128321769        2.1687210825
