  62
        -98.94795529
 C         -1.2492148468       -0.8082336593        0.3933929793
 C         -2.0765862938       -0.5939878768       -0.7346329162
 C         -3.0253920673        0.5236652910       -0.6276913067
 C         -3.0115429270        1.2994039942        0.4715181624
 C         -3.9505932963        2.4419296400        0.7270554180
 C         -5.2046181229        1.9750592778        1.4795894700
 C         -5.8686044928        0.7422362920        0.8662099256
 H         -5.1946373143       -0.1114933177        0.9663795617
 H         -6.7577558289        0.5224971340        1.4609464299
 C         -6.2658490177        0.9026410912       -0.6078458639
 H         -7.2746598216        0.5073801838       -0.7439838328
 H         -6.2943016842        1.9607138990       -0.8705937545
 C         -5.3599588099        0.1611525023       -1.5927249754
 H         -5.8490531068        0.1606216129       -2.5704051447
 H         -5.2532094212       -0.8802387590       -1.2791840366
 C         -3.9571874391        0.7517835579       -1.7845029761
 H         -3.4969463954        0.2488307030       -2.6403425500
 H         -4.0328009744        1.8168154622       -2.0145273369
 H         -5.9179920231        2.8007836268        1.5056195169
 H         -4.9221985004        1.7372383081        2.5077819674
 H         -4.2298072835        2.8939233736       -0.2228950000
 H         -3.4279435368        3.1863440695        1.3305872305
 O         -2.1580132964        1.1008748722        1.5082641104
 C         -1.2557545047        0.0504407397        1.4920225515
 O         -0.5200377400       -0.0128441439        2.4991922548
 O         -2.0274760945       -1.2972614096       -1.7777618883
 C         -0.2393535212       -1.9404950413        0.3895010061
 C          0.7926266279       -1.7193141836       -0.6912285608
 C          1.3352355840       -2.7448029889       -1.4554945252
 C          2.3047251324       -2.4698522289       -2.4047781100
 C          2.7733588835       -1.1821689431       -2.5940105448
 C          2.2403862578       -0.1505773223       -1.8296890066
 C          1.2544562708       -0.4269994483       -0.8971637955
 H          0.8277715816        0.3876551847       -0.3327540211
 N          2.6849464364        1.1728914043       -1.9727314635
 S          2.8088681082        2.1403449242       -0.6130765562
 O          1.5050476748        2.5862184936       -0.1886378139
 O          3.7323488577        3.1842053241       -1.0058506288
 C          3.5732447349        1.0957000587        0.6151440750
 C          4.9027291514        0.7708951648        0.4196357933
 C          5.5279828057       -0.0793539477        1.3156148752
 C          4.8142420641       -0.5957056260        2.3869835827
 C          3.4838578866       -0.2561537919        2.5725610629
 C          2.8524002343        0.5980148072        1.6808631862
 H          1.8156776359        0.8683733049        1.8106736631
 H          2.9197439516       -0.6512036575        3.4026220968
 H          5.2967569481       -1.2635262700        3.0830346389
 H          6.5647203385       -0.3394768298        1.1758620145
 H          5.4251619372        1.2026073786       -0.4185969805
 H          3.4696006489        1.2955808470       -2.5956841921
 H          3.5347988286       -0.9728558322       -3.3293084921
 H          2.7098660798       -3.2735939830       -3.0003797751
 H          0.9937991466       -3.7569945290       -1.3136817499
 H          0.2824233664       -1.8827220833        1.3571158935
 C         -0.9380479794       -3.2809452500        0.2924082266
 C         -0.3477477928       -4.4910750346        0.9499948079
 C         -1.5764556324       -3.8522145458        1.5218187753
 H         -2.5219301845       -4.3639346944        1.4223654419
 H         -1.4820591641       -3.2858876199        2.4373741853
 H         -0.4522787402       -5.4468781423        0.4590503267
 H          0.5812191020       -4.3671041626        1.4856524799
 H         -1.4602305937       -3.4095595606       -0.6483800408
