  62
        -98.93836200
 C         -1.7668163121       -0.0670417821        0.1559491066
 C         -2.8935581592       -0.9245495119        0.0934545713
 C         -4.1202626243       -0.3211888654       -0.4521382710
 C         -4.1108815405        0.9461279899       -0.8998860756
 C         -5.2724205909        1.6814560324       -1.5116116099
 C         -6.2216534255        2.3133860798       -0.4843836487
 C         -7.1033538588        1.3252921397        0.2803632939
 H         -7.8639613431        1.9108444587        0.8007143529
 H         -7.6201593344        0.6773445876       -0.4282514976
 C         -6.3509003345        0.4694367387        1.3088854819
 H         -6.9099325381        0.4524794782        2.2472726286
 H         -5.3813987152        0.9254271940        1.5225558929
 C         -6.1316725255       -0.9832417051        0.8859577960
 H         -5.5592835909       -1.4858406022        1.6698751773
 H         -7.0960144579       -1.4885524120        0.7974954485
 C         -5.3703598617       -1.1485126211       -0.4358032316
 H         -5.0766249913       -2.1965568692       -0.5330291112
 H         -6.0130118788       -0.8854934471       -1.2756872397
 H         -6.8723465597        3.0051284740       -1.0243491723
 H         -5.6303297126        2.8981097779        0.2240643763
 H         -4.8463660738        2.4795584693       -2.1233388479
 H         -5.8328279618        1.0077855442       -2.1604832217
 O         -2.9958431064        1.7236954268       -0.8625352607
 C         -1.8159487127        1.2472777165       -0.3179321840
 O         -0.8864068682        2.0795919515       -0.3092883658
 H          2.1576140298        0.0475870386        0.2154206951
 C          1.7793123312       -0.7244539464       -0.4362338546
 C          0.4531998769       -1.1162980756       -0.3333625335
 C         -0.0272220370       -2.0910586884       -1.2016663583
 C          0.8102527206       -2.6601106446       -2.1437040048
 C          2.1409385346       -2.2878679310       -2.2227784854
 C          2.6304007261       -1.3147799496       -1.3597789980
 N          3.9699665927       -0.9082350189       -1.4125273366
 S          4.7846618109       -0.5431772720        0.0041569294
 O          6.1826738812       -0.7118706149       -0.3283865079
 O          4.2941239610       -1.3268562379        1.1130104543
 C          4.4558105704        1.1855414104        0.2680960082
 C          3.9632197877        1.6128508619        1.4849125723
 C          3.7227416468        2.9646230868        1.6734336858
 C          3.9796655148        3.8603725929        0.6473579364
 C          4.4786179355        3.4155572266       -0.5676333913
 C          4.7211028502        2.0656257915       -0.7621545553
 H          5.1097216860        1.6826068117       -1.6909547571
 H          4.6753368644        4.1164563963       -1.3628707177
 H          3.7875681124        4.9112458992        0.7959555425
 H          3.3321796550        3.3118572457        2.6166140388
 H          3.7699777718        0.8821404971        2.2550711798
 H          4.5470214350       -1.4156626904       -2.0671079243
 H          2.7963115953       -2.7452325083       -2.9484617027
 H          0.4265557865       -3.4140719334       -2.8146292215
 H         -1.0570458026       -2.4046817735       -1.1235264142
 C         -0.4226398544       -0.4919895546        0.7217019410
 H          0.0657247510        0.4450445018        1.0348912949
 C         -0.5397044850       -1.3673498283        1.9626138190
 C         -0.2437841081       -2.8333637634        1.9764110324
 C          0.6966774675       -1.8775942361        2.6435547577
 H          0.7350947904       -1.8590783395        3.7226203890
 H          1.6507073828       -1.6985441627        2.1674701946
 H          0.0717778768       -3.2992748715        1.0563332687
 H         -0.8707794579       -3.4643712159        2.5877267260
 H         -1.3464131652       -1.0378859679        2.6102733276
 O         -2.8995436494       -2.1272541448        0.4579652810
