  62
        -98.94088518
 C         -1.6514022173       -0.0938216028        0.7050428455
 C         -2.9135093830       -0.0786434616        1.3525210226
 C         -4.0512273470       -0.5671144269        0.5660241927
 C         -3.8567110077       -0.9824600721       -0.6984869188
 C         -4.9092449377       -1.5337436153       -1.6217113194
 C         -5.7162347798       -0.4585113598       -2.3620529510
 C         -6.7156666075        0.3134501858       -1.4996949372
 H         -7.3599670272        0.8741653002       -2.1798539239
 H         -7.3485861130       -0.3912942211       -0.9594297362
 C         -6.0720634277        1.2942336573       -0.5094866287
 H         -6.5957638282        2.2519370396       -0.5527203513
 H         -5.0370547694        1.4826061172       -0.8043483305
 C         -6.0950144577        0.8312990436        0.9473264988
 H         -7.1283678710        0.7673235181        1.2954856416
 H         -5.5818008279        1.5819347303        1.5539448127
 C         -5.4127059735       -0.5210882591        1.1913675850
 H         -5.2891147962       -0.6525851399        2.2692183884
 H         -6.0346830694       -1.3303866033        0.8092177615
 H         -6.2688496818       -0.9584199757       -3.1608952301
 H         -5.0194912132        0.2421465617       -2.8280218616
 H         -5.5875019775       -2.1775418268       -1.0609352385
 H         -4.3851220664       -2.1411905211       -2.3626164264
 O         -2.6356511897       -0.9623008987       -1.2921982577
 C         -1.5070763498       -0.4992149393       -0.6232352550
 O         -0.4757417510       -0.5106824939       -1.3183489938
 O         -3.0810450904        0.3252293926        2.5342192154
 C         -0.4557102252        0.4174586260        1.4887227435
 C          0.3279930171        1.4009801133        0.6588236598
 C         -0.2761213273        2.6016579789        0.2938581296
 C          0.3968103264        3.5225103999       -0.4845665717
 C          1.6915480829        3.2715245024       -0.9044082962
 C          2.3025112384        2.0761630567       -0.5470995216
 C          1.6204618313        1.1496672164        0.2294114552
 H          2.1030030809        0.2206714364        0.4809337338
 N          3.5991136176        1.7785954800       -0.9839008464
 S          4.6420277379        0.8759911117       -0.0485472727
 O          4.4847878252        1.1642907000        1.3588862389
 O          5.9521333294        1.1501911974       -0.6014700201
 C          4.2299561958       -0.8258916380       -0.3723254309
 C          3.7486823531       -1.1910333944       -1.6131805713
 C          3.4788097303       -2.5279257056       -1.8580484213
 C          3.7021120701       -3.4731786835       -0.8690735543
 C          4.1911197221       -3.0911159259        0.3706079964
 C          4.4577932204       -1.7549060243        0.6238814465
 H          4.8257359961       -1.4126144534        1.5782302464
 H          4.3621432641       -3.8275403209        1.1399077601
 H          3.4901706382       -4.5127674253       -1.0634874459
 H          3.0905755737       -2.8260417003       -2.8186150041
 H          3.5755293180       -0.4339784951       -2.3594220619
 H          4.0685192614        2.5063936490       -1.5010143864
 H          2.2208361835        3.9899393352       -1.5118521825
 H         -0.0859211216        4.4472211731       -0.7635524662
 H         -1.2877326745        2.7981823496        0.6230418696
 H         -0.9000793625        0.9684896603        2.3349416583
 C          0.4108282957       -0.6763797679        2.0940226449
 C         -0.1948471620       -1.9670495104        2.5559075020
 C          0.7233542625       -1.9517123990        1.3725062289
 H          1.7131413091       -2.3698632040        1.4836853111
 H          0.3042767295       -2.0872351084        0.3881704020
 H          0.1598811256       -2.3993458515        3.4792993435
 H         -1.2513097756       -2.1115825691        2.3825178979
 H          1.2018566606       -0.2641352099        2.7146101407
