  62
        -98.94533252
 C          2.3497753817        0.4334463255        0.0960793841
 C          1.5625282589       -0.2453083220       -0.8607218997
 C          1.6422966778       -1.7165980508       -0.8583177584
 C          2.4079078608       -2.3300935061        0.0606695094
 C          2.7158450815       -3.7985893567        0.2323847934
 C          1.6131746376       -4.8181881047       -0.0619127442
 C          0.2149697363       -4.4114295793        0.4247624517
 H         -0.2016613945       -5.2180820730        1.0312348507
 H          0.2772594850       -3.5257949040        1.0611509301
 C         -0.7566533561       -4.1251925145       -0.7211088664
 H         -1.7779876027       -4.1954118474       -0.3384320639
 H         -0.6372184569       -4.8885833301       -1.4935274798
 C         -0.6030170714       -2.7389774377       -1.3413271602
 H         -1.3298703599       -2.6444960822       -2.1521403656
 H         -0.8553052124       -1.9884694978       -0.5883410988
 C          0.7980129339       -2.4133207953       -1.8879057792
 H          1.2874132557       -3.3047785210       -2.2735253844
 H          0.6832764793       -1.6995800031       -2.7082242770
 H          1.5770782532       -5.0220067060       -1.1308518257
 H          1.9126914693       -5.7479758879        0.4256393803
 H          3.0330600465       -3.8999815610        1.2738263378
 H          3.5876798786       -4.0280818044       -0.3890986816
 O          3.1093147507       -1.6337896762        1.0030221965
 C          3.0980693485       -0.2519943874        1.0487828210
 O          3.7860265187        0.2413805577        1.9677459501
 O          0.8400110590        0.3530962256       -1.7010256128
 C          2.3585308808        1.9508188898        0.1327217517
 C          0.9507370896        2.4837331120        0.2414743753
 C          0.5015949273        3.5996810300       -0.4544863475
 C         -0.8061251579        4.0327093969       -0.3184325622
 C         -1.6972932510        3.3519138471        0.4907790287
 C         -1.2550825040        2.2391860945        1.1966590752
 C          0.0656037356        1.8348070437        1.0924780801
 H          0.3958334817        0.9712175800        1.6516569671
 N         -2.1274510436        1.4913252484        2.0158793820
 S         -2.3975598592       -0.1031597321        1.5696492094
 O         -3.3707140986       -0.5980283027        2.5203067349
 O         -1.1475985665       -0.8149007050        1.5116828540
 C         -3.1605858482        0.0137932938       -0.0400430475
 C         -2.3943106405        0.3363751357       -1.1425314063
 C         -3.0263490629        0.4905585277       -2.3676038331
 C         -4.3984300671        0.3254976347       -2.4707178404
 C         -5.1528119323        0.0031372676       -1.3524130089
 C         -4.5305224859       -0.1493188320       -0.1245630297
 H         -5.0737558016       -0.4004742994        0.7721884279
 H         -6.2199977487       -0.1272344203       -1.4326817853
 H         -4.8812531829        0.4477339790       -3.4275182569
 H         -2.4307384694        0.7398643969       -3.2310561093
 H         -1.3251417687        0.4531266482       -1.0542007268
 H         -3.0193254673        1.9414888837        2.1728699555
 H         -2.7244369129        3.6732071376        0.5768030091
 H         -1.1403948724        4.9013285201       -0.8647715219
 H          1.1757679542        4.1283752119       -1.1082906451
 H          2.9038818283        2.2298796940        1.0468426294
 C          3.1104366967        2.4891048607       -1.0685673500
 C          3.8880624307        3.7662639281       -0.9698309278
 C          4.6081213997        2.4549794719       -1.0546693707
 H          5.1277482180        2.2065273444       -1.9678266321
 H          5.0839185003        2.0699649406       -0.1640614056
 H          3.9182109286        4.4198694300       -1.8286162346
 H          3.8876770127        4.2810712939       -0.0209323535
 H          2.6140431690        2.2601742329       -2.0047020083
