  62
        -98.93528256
 C          1.5701478784        0.1218345125        0.4571310239
 C          2.4533571979        0.4953051683       -0.5865453034
 C          3.6870019140       -0.3021210153       -0.6973957964
 C          3.9005913971       -1.3220110113        0.1515511909
 C          5.1350596460       -2.1750512352        0.1801472936
 C          6.1879345975       -1.5988701949        1.1373068763
 C          6.4577265705       -0.1078736584        0.9342946216
 H          5.5597686320        0.4552996583        1.1983763331
 H          7.2378203333        0.1801584993        1.6423634808
 C          6.8926785954        0.2711292480       -0.4882048713
 H          7.2393492440       -0.6167091330       -1.0183751789
 H          7.7373795514        0.9602725786       -0.4235814217
 C          5.8118021515        0.9671064126       -1.3174252036
 H          5.3953462068        1.8022486124       -0.7489049737
 H          6.2845605689        1.3825588389       -2.2112961682
 C          4.6530087629        0.0772960872       -1.7846706849
 H          4.0713936364        0.6458096618       -2.5161565859
 H          5.0477976263       -0.8135895571       -2.2772831099
 H          7.1153462182       -2.1598440574        1.0079320619
 H          5.8412185356       -1.7476869716        2.1626584826
 H          4.8546301587       -3.1736070438        0.5201159164
 H          5.5437873608       -2.2467340814       -0.8259726824
 O          3.0206679527       -1.6647195988        1.1277468348
 C          1.8484505539       -0.9525678069        1.3071936513
 O          1.1428473039       -1.3660352738        2.2515889896
 H         -1.4722170695       -1.0806700654        0.1839395957
 C         -1.4875157545       -0.3281800780       -0.5910868205
 C         -0.6359928473        0.7686192588       -0.5051626556
 C         -0.6483220063        1.6838391550       -1.5522329479
 C         -1.4928821409        1.5047832006       -2.6342657153
 C         -2.3650752712        0.4333614832       -2.6915244325
 C         -2.3576370491       -0.4940173253       -1.6576134234
 N         -3.2443065651       -1.5848003822       -1.6488587222
 S         -4.0217180725       -1.9308595585       -0.2047072216
 O         -3.1696333257       -2.7245947790        0.6441408090
 O         -5.2680861020       -2.5510946793       -0.6019986311
 C         -4.3285092001       -0.3317570361        0.5263041801
 C         -3.6433590892        0.0580702423        1.6586819744
 C         -3.8379751421        1.3386534005        2.1515988524
 C         -4.7122905554        2.2010081370        1.5091453463
 C         -5.4051886053        1.7895348379        0.3807084961
 C         -5.2095644782        0.5132187156       -0.1202531741
 H         -5.7327804625        0.1568304167       -0.9927113957
 H         -6.0898639995        2.4604182924       -0.1124301258
 H         -4.8544953320        3.1990440366        1.8922697355
 H         -3.2977886968        1.6574168637        3.0285282016
 H         -2.9691923241       -0.6390349014        2.1311910018
 H         -3.8890638979       -1.6032681156       -2.4259513344
 H         -3.0352131664        0.3080495977       -3.5282103288
 H         -1.4779475771        2.2219642790       -3.4408031579
 H          0.0278369018        2.5189996029       -1.5511612068
 C          0.2469588620        0.8349350309        0.7169177482
 H         -0.2447534202        0.2050555291        1.4742597681
 C          0.4528400841        2.1790847997        1.4061008228
 C          1.0345506017        3.4090828332        0.7794125081
 C         -0.4131947008        3.3789236300        1.1667694544
 H         -0.7226411780        3.9607014932        2.0220461650
 H         -1.1532347912        3.3158188101        0.3847791664
 H          1.7119445407        3.9971874864        1.3830880971
 H          1.3174344540        3.3723455696       -0.2589763947
 H          0.7547722200        2.0081505977        2.4371213692
 O          2.2471170408        1.4369155662       -1.3909553158
