  62
        -98.94084914
 C          1.5261158116        0.7118516453        0.4367156769
 C          2.6042543024        0.9147690073       -0.4602965010
 C          3.5169951352       -0.2291608361       -0.6296873442
 C          3.2625431436       -1.3856135839        0.0068371424
 C          4.1303521110       -2.6085697370       -0.0506810003
 C          5.1693620263       -2.6065634546        1.0793823775
 C          5.9399368604       -1.2925670801        1.2079734810
 H          5.2501339529       -0.5033614187        1.5161220538
 H          6.6642903979       -1.4181442158        2.0157551478
 C          6.6699706511       -0.8566373736       -0.0701562186
 H          7.6762010589       -0.5268392201        0.1970592918
 H          6.7768222492       -1.7073893596       -0.7440563426
 C          6.0053201989        0.3011678020       -0.8173653183
 H          6.7089344698        0.6683510585       -1.5692443505
 H          5.8126533952        1.1224659762       -0.1223261832
 C          4.6959408143       -0.0358225941       -1.5417082128
 H          4.4426067000        0.8142783865       -2.1818153518
 H          4.8418810969       -0.9123369736       -2.1759468831
 H          5.8700466777       -3.4253262900        0.9059439621
 H          4.6542978866       -2.7946061383        2.0243829269
 H          4.6296461358       -2.6486197288       -1.0167579003
 H          3.4937624599       -3.4883651494        0.0565022228
 O          2.1914672550       -1.5577416139        0.8239321766
 C          1.3168622564       -0.5144480534        1.0726712597
 O          0.3993881498       -0.7972600597        1.8698904154
 O          2.8114264382        1.9802145130       -1.0939460183
 C          0.4956205934        1.7846439322        0.7536438556
 C         -0.6350170910        1.7008409995       -0.2391600049
 C         -0.4014272199        1.8206767359       -1.6067619728
 C         -1.4461832204        1.7183878166       -2.5056998009
 C         -2.7352004204        1.4721823114       -2.0638991755
 C         -2.9764039057        1.3390361690       -0.7024441602
 C         -1.9289042686        1.4666841387        0.2007216815
 H         -2.1329820652        1.3578339133        1.2552611597
 N         -4.2734149122        1.0818350805       -0.2216262522
 S         -4.4960967671       -0.1980498311        0.8384710538
 O         -5.9247690073       -0.4263524329        0.8308826226
 O         -3.9109997323        0.1146910289        2.1156480433
 C         -3.6629026717       -1.5656562346        0.0539726422
 C         -2.3352233685       -1.8229676052        0.3275678043
 C         -1.6986349825       -2.8414236342       -0.3657546389
 C         -2.3914045472       -3.5803174705       -1.3112715783
 C         -3.7276724813       -3.3120312671       -1.5696912655
 C         -4.3687503535       -2.2925303726       -0.8864722198
 H         -5.4078339932       -2.0560044101       -1.0499941243
 H         -4.2671434704       -3.8916942864       -2.3013074022
 H         -1.8874260361       -4.3702310084       -1.8457331544
 H         -0.6592099353       -3.0403756331       -0.1542936178
 H         -1.8044368072       -1.2463764235        1.0691609683
 H         -4.9779221634        1.0543083464       -0.9456628151
 H         -3.5490559878        1.3831379537       -2.7673705288
 H         -1.2545908956        1.8206037690       -3.5630559621
 H          0.6066105157        1.9965746984       -1.9506047866
 H          0.0866174570        1.5103749541        1.7394806748
 C          1.0957764071        3.1779275726        0.8855815969
 C          0.7363686917        4.3276416886       -0.0027571983
 C          0.2468222223        4.2977930475        1.4116340315
 H          0.6749006587        4.9823818403        2.1283138532
 H         -0.8003394043        4.0873474468        1.5743592984
 H          1.5235067526        5.0176238540       -0.2660473120
 H          0.0188459708        4.1646607025       -0.7910554453
 H          2.1228680478        3.1478504475        1.2335936990
