  62
        -98.93068337
 C          2.3711485616        1.1513316747       -0.0221282356
 C          2.4834080352       -0.2249718862        0.2827202548
 C          3.8499613534       -0.7479244139        0.5062397127
 C          4.8919511757        0.1010671552        0.4496042609
 C          6.3590422468       -0.2037250677        0.5985060616
 C          6.9547295700       -0.8745176098       -0.6493727479
 C          6.1033490175       -1.9922540723       -1.2455229817
 H          6.5817899838       -2.3144704399       -2.1741925486
 H          5.1217989398       -1.5942040120       -1.5095053928
 C          5.9303191201       -3.2222911538       -0.3576214334
 H          6.9137936266       -3.6334323793       -0.1194870419
 H          5.3906059650       -3.9706846689       -0.9435596107
 C          5.1646681534       -3.0023938551        0.9491944859
 H          5.7938357517       -2.5324138294        1.7002023316
 H          4.8993416951       -3.9889034296        1.3403575071
 C          3.8582577112       -2.2291228326        0.7992442830
 H          3.2734882226       -2.3471992477        1.7195879932
 H          3.2520636510       -2.6970669821        0.0149000283
 H          7.9420374672       -1.2626483250       -0.3935353731
 H          7.0820942458       -0.1074195890       -1.4172022583
 H          6.5271551052       -0.8118202846        1.4822343008
 H          6.8623256365        0.7533920501        0.7522222261
 O          4.7294410985        1.4321800547        0.1965250812
 C          3.4888574338        1.9885294845       -0.0371124073
 O          3.5058612995        3.2207502813       -0.2320912936
 O          1.5009556780       -1.0072603076        0.3652582526
 C          1.0288331059        1.8091743932       -0.2883710166
 C          0.0021839220        1.3451176737        0.7151001408
 C          0.2206356121        1.6123722180        2.0647338596
 C         -0.6952461548        1.2196364623        3.0205860684
 C         -1.8606563895        0.5714341650        2.6502404827
 C         -2.0854975037        0.2959955434        1.3073928559
 C         -1.1564832174        0.6800373098        0.3503010453
 H         -1.3501783308        0.4330952526       -0.6800661497
 N         -3.2451100250       -0.3817595537        0.8979353762
 S         -3.9511348243        0.0602737291       -0.5691214847
 O         -3.3241146419       -0.6739521234       -1.6390188585
 O         -3.9555312797        1.5003558021       -0.7018655904
 C         -5.6123744630       -0.5416868387       -0.3229793434
 C         -5.8715325253       -1.8824512105       -0.5370778254
 C         -7.1535238706       -2.3602257125       -0.3164721701
 C         -8.1492119501       -1.4950198222        0.1126033719
 C         -7.8745644264       -0.1518780240        0.3215651891
 C         -6.5941801714        0.3324135047        0.1040446841
 H         -6.3360938792        1.3697141020        0.2450411597
 H         -8.6514793386        0.5186394329        0.6518469740
 H         -9.1462371525       -1.8695590810        0.2825442446
 H         -7.3714580915       -3.4032229377       -0.4805435594
 H         -5.0681376572       -2.5143175533       -0.8786157128
 H         -3.9304929059       -0.4747668479        1.6347544178
 H         -2.5814078908        0.2700355675        3.3953066775
 H         -0.5072588489        1.4292305137        4.0630818802
 H          1.1277320515        2.1276056655        2.3526299083
 H          1.2007195172        2.8851424354       -0.1134276868
 C          0.5501220436        1.6772993220       -1.7265591130
 C          1.5211698965        1.5887520315       -2.8646230103
 C          0.6836843261        0.4016759884       -2.5000110861
 H         -0.1268750703        0.1157024791       -3.1551846625
 H          1.1553136940       -0.4329942277       -2.0058920407
 H          1.2929122384        2.1221476658       -3.7750985938
 H          2.5739502553        1.5669513758       -2.6224500565
 H         -0.3495186222        2.2600011483       -1.9067922186
