  62
        -98.93977486
 C         -2.4525027198       -0.2978325100        0.2497855799
 C         -3.6198943897       -0.2405143801        1.0478873899
 C         -4.7673482397        0.4528033700        0.4524034900
 C         -4.6488077997        1.0143043602       -0.7647449298
 C         -5.7179278097        1.7847042704       -1.4910666297
 C         -6.7044855098        0.9019636705       -2.2676749898
 C         -7.6982295898        0.1236022104       -1.4045714700
 H         -8.1959699797        0.8091162603       -0.7179577098
 H         -8.4610292798       -0.2759801095       -2.0758009601
 C         -7.0776595298       -1.0380897398       -0.6160498602
 H         -7.7072538798       -1.9248077997       -0.7183962704
 H         -6.1026295798       -1.2872212597       -1.0410123603
 C         -6.9110643798       -0.7722847701        0.8801543798
 H         -7.8930544297       -0.6504906201        1.3426307399
 H         -6.4323160098       -1.6449791402        1.3316230597
 C         -6.0593769397        0.4600102599        1.2125219701
 H         -5.8178752197        0.4330714496        2.2780348601
 H         -6.6190665097        1.3716757499        1.0043158602
 H         -7.2701574498        1.5555978507       -2.9356098397
 H         -6.1357410498        0.2051962207       -2.8876709700
 H         -6.2649218397        2.4087065002       -0.7837277296
 H         -5.2028971397        2.4343525705       -2.2019935396
 O         -3.4994027398        0.9602268303       -1.4889292999
 C         -2.3812264198        0.2908471702       -1.0127948600
 O         -1.4107662498        0.2950493904       -1.7933533200
 O         -3.6960740797       -0.7375383604        2.2038734198
 C         -1.2246644998       -1.0041944401        0.7957596697
 C         -0.0806429097       -0.0250974702        0.8931771899
 C         -0.2713534697        1.1472069497        1.6208935901
 C          0.7386483803        2.0821672597        1.7336604603
 C          1.9624641503        1.8721527098        1.1220323902
 C          2.1672280603        0.7039604999        0.4021604700
 C          1.1525560203       -0.2418861701        0.3010602698
 H          1.3276253302       -1.1448681100       -0.2628070003
 N          3.4004453403        0.4886834000       -0.2395292800
 S          4.8062623103        0.8524257898        0.6225571600
 O          4.7369688503        0.2781979596        1.9482723199
 O          5.0283387703        2.2753961798        0.5651904803
 C          6.0317556802        0.0095362700       -0.3586004402
 C          6.4231613802       -1.2670046701       -0.0017158304
 C          7.3594098502       -1.9241413300       -0.7844162406
 C          7.8833335802       -1.2980829897       -1.9054824404
 C          7.4804479802       -0.0165664797       -2.2507087002
 C          6.5450197802        0.6464421202       -1.4723992101
 H          6.2088175203        1.6452129502       -1.6967498899
 H          7.8920145302        0.4675629205       -3.1216145901
 H          8.6125600102       -1.8111846196       -2.5123431806
 H          7.6767141102       -2.9193070000       -0.5172879308
 H          5.9974222202       -1.7110357803        0.8839255095
 H          3.4568991202       -0.4313981899       -0.6546116502
 H          2.7589501203        2.5943990997        1.1996357104
 H          0.5739023003        2.9866970695        2.3003236405
 H         -1.2285641097        1.3160781096        2.0958153302
 H         -1.4957933897       -1.3115591503        1.8167038197
 C         -0.9152047398       -2.2418791300       -0.0188626305
 C         -0.1705450398       -3.3847800101        0.6024751992
 C         -1.6328142998       -3.5171491400        0.3029280592
 H         -1.9379367198       -4.1566357999       -0.5117260809
 H         -2.3296817798       -3.4995732602        1.1280900692
 H          0.5275454002       -3.9393116400       -0.0064261709
 H          0.1283249102       -3.2827800403        1.6348802893
 H         -0.7379347898       -2.0195272498       -1.0652056105
