  62
        -98.94173292
 C         -2.7888900025       -0.5414508012       -0.2673253344
 C         -2.1372973548        0.3604153481       -1.1438403551
 C         -2.3499761609        1.7899932138       -0.8729814353
 C         -3.1570154248        2.1647171600        0.1346695525
 C         -3.4241885722        3.5831909737        0.5445751374
 C         -2.4441676881        4.0450569939        1.6316953274
 C         -0.9771436501        3.7550623333        1.3120920913
 H         -0.3794794882        4.1656504956        2.1292921182
 H         -0.8084215961        2.6748188049        1.3127269614
 C         -0.4865745323        4.3372787614       -0.0205484067
 H         -1.1630165085        5.1258483092       -0.3538188424
 H          0.4928088608        4.7924350086        0.1404626328
 C         -0.3175076174        3.3027525864       -1.1350423641
 H          0.2648570596        2.4581329650       -0.7548517915
 H          0.2568567963        3.7649498555       -1.9428610962
 C         -1.6199670604        2.7697514446       -1.7474419454
 H         -2.2684654839        3.6056577167       -2.0180340987
 H         -1.3625021239        2.2244168384       -2.6600010064
 H         -2.6960847375        3.5361508926        2.5650536231
 H         -2.5781752829        5.1179312328        1.7825068195
 H         -4.4406788796        3.6402690348        0.9378815256
 H         -3.3453864453        4.2285063057       -0.3280718136
 O         -3.8020503342        1.2730992186        0.9293559815
 C         -3.6083195280       -0.0869449092        0.7714353106
 O         -4.2260992870       -0.7879507431        1.5983650812
 O         -1.4097524935        0.0175035714       -2.1152510446
 C         -2.6073390778       -2.0528844091       -0.3317538225
 C         -1.2975709273       -2.4069673993        0.3316093631
 C         -1.2617460050       -3.1007514960        1.5353739914
 C         -0.0587021116       -3.3366565573        2.1790698919
 C          1.1307696518       -2.8719571871        1.6457510324
 C          1.1018427166       -2.1787346867        0.4440271111
 C         -0.0988876838       -1.9694737387       -0.2137209156
 H         -0.1094576828       -1.4122016565       -1.1387263582
 N          2.3068378549       -1.6403230310       -0.0835086122
 S          2.7599236979       -0.2363022425        0.7534648476
 O          3.0035840739       -0.5957545362        2.1277244675
 O          1.7920584328        0.8168136140        0.5329592416
 C          4.3003293201        0.1551069379       -0.0525975875
 C          5.4085154801       -0.6131258988        0.2488093862
 C          6.6045853060       -0.3442514870       -0.3965703219
 C          6.6713818537        0.6818057111       -1.3277832081
 C          5.5502435232        1.4436070338       -1.6195450005
 C          4.3497693601        1.1783997523       -0.9786565138
 H          3.4534802089        1.7468323578       -1.1710587284
 H          5.6048789219        2.2413997866       -2.3427371697
 H          7.6034493638        0.8899996751       -1.8290444690
 H          7.4789264632       -0.9337385014       -0.1725402633
 H          5.3091659706       -1.3944657714        0.9836595436
 H          2.1686316959       -1.3682731489       -1.0505564735
 H          2.0689440725       -3.0119513776        2.1568193604
 H         -0.0492519752       -3.8743255704        3.1152260890
 H         -2.1895539819       -3.4313258029        1.9800980844
 H         -3.4182769315       -2.4772204419        0.2749123035
 C         -2.7081085559       -2.6210359361       -1.7328513281
 C         -3.0142080462       -4.0778030937       -1.9016481907
 C         -4.0456847163       -3.0491105489       -2.2534832097
 H         -4.2712272303       -2.8760611762       -3.2949482229
 H         -4.8967919061       -2.9339940751       -1.5979284915
 H         -2.5302374846       -4.6156227142       -2.7022425783
 H         -3.1674313629       -4.6629466847       -1.0074628538
 H         -2.0268029853       -2.1627697507       -2.4367672559
