  62
        -98.93938462
 C         -2.6875604992       -1.2236028617       -0.1874946869
 C         -2.6861755990       -0.0357648896       -0.9575547440
 C         -3.9717814898        0.6724227625       -1.0403383877
 C         -5.0486098514        0.1616947741       -0.4159141626
 C         -6.4006932167        0.8111859315       -0.3687586750
 C         -6.5356853225        1.7207243328        0.8606688877
 C         -5.3650004393        2.6861297720        1.0474078608
 H         -4.4615397336        2.1138779866        1.2712324558
 H         -5.5838357562        3.2958414598        1.9267980796
 C         -5.0982662585        3.6014142668       -0.1557313497
 H         -4.9328579480        4.6177033532        0.2079898415
 H         -5.9758508984        3.6276997677       -0.8027302242
 C         -3.8696147176        3.2194450682       -0.9833633531
 H         -3.0055395586        3.0998262376       -0.3244713296
 H         -3.6491181587        4.0451845198       -1.6650669171
 C         -4.0063272761        1.9491469923       -1.8321543843
 H         -3.1454424245        1.9062381242       -2.5056594241
 H         -4.9140350224        2.0052026077       -2.4362822581
 H         -6.6050684863        1.0913128109        1.7509689504
 H         -7.4650060510        2.2861907352        0.7713349218
 H         -7.1576527727        0.0270234321       -0.3142882307
 H         -6.5532675359        1.3877660674       -1.2789066573
 O         -5.0146788806       -0.9944017732        0.2957882948
 C         -3.8349414977       -1.7047047071        0.4425957555
 O         -3.9345704064       -2.7310092732        1.1457001273
 O         -1.6681770403        0.4115686541       -1.5469864585
 C         -1.4013064238       -2.0111581260       -0.0084613297
 C         -0.3687801638       -1.1307337322        0.6535861656
 C         -0.6796676086       -0.5545764891        1.8828175020
 C          0.2231339650        0.2689217638        2.5263948021
 C          1.4555810911        0.5431300864        1.9582043325
 C          1.7803359320       -0.0334904018        0.7387416357
 C          0.8733945148       -0.8715677791        0.0990664580
 H          1.1395470160       -1.3091356470       -0.8507100284
 N          3.0222096338        0.2545047324        0.1325584537
 S          4.4355936458       -0.0781788723        0.9944292983
 O          4.6041230667       -1.5085215867        1.1473435569
 O          4.4354400404        0.6908507299        2.2117170623
 C          5.6548433606        0.5679000715       -0.1321154295
 C          6.4217301784       -0.2966528267       -0.8885723533
 C          7.3492960362        0.2304485805       -1.7737889374
 C          7.4903323772        1.6049554707       -1.8882620232
 C          6.7119786589        2.4602095357       -1.1219952551
 C          5.7840687220        1.9397834545       -0.2345188397
 H          5.1630541314        2.5655056307        0.3847885859
 H          6.8255641380        3.5284130405       -1.2135154730
 H          8.2126535082        2.0126088069       -2.5777891213
 H          7.9569852019       -0.4315575004       -2.3695192277
 H          6.2828348682       -1.3584047930       -0.7622283621
 H          3.0933223012       -0.1859807010       -0.7761652533
 H          2.1679985301        1.1814800439        2.4536210259
 H         -0.0348286848        0.7088814106        3.4783721030
 H         -1.6453308872       -0.7625136466        2.3251239288
 H         -1.6401246256       -2.8313262430        0.6840368718
 C         -0.9561684281       -2.6034436457       -1.3286408285
 C         -0.0782540632       -3.8177912265       -1.3484888156
 C         -1.5169774200       -3.9256838230       -1.7538306258
 H         -1.7497278355       -4.0755216647       -2.7973690084
 H         -2.2061248446       -4.4122810613       -1.0789433268
 H          0.6763051783       -3.8985172438       -2.1165696054
 H          0.2153012670       -4.2379523323       -0.3981141922
 H         -0.8124550376       -1.8525545191       -2.0969948836
