  62
        -98.93978241
 C          2.1090930470        0.4008726776        0.3782332510
 C          3.1385110878        0.6320893312       -0.5671432158
 C          4.0437416077       -0.4999295064       -0.8215282763
 C          3.8370541083       -1.6712757625       -0.1948082984
 C          4.7142529800       -2.8822302629       -0.3233531916
 C          5.8165660225       -2.8855849786        0.7454430910
 C          6.5781014319       -1.5643459091        0.8530135506
 H          5.8970698295       -0.7895246689        1.2125791791
 H          7.3478862419       -1.6947670994        1.6167545812
 C          7.2300258494       -1.0983607580       -0.4562545567
 H          7.3075873935       -1.9364003523       -1.1497541511
 H          8.2458299569       -0.7606903141       -0.2403229850
 C          6.5111140867        0.0635603851       -1.1440984167
 H          6.3486589062        0.8706241944       -0.4254468661
 H          7.1656079037        0.4508858774       -1.9293761463
 C          5.1657166100       -0.2774731681       -1.7970873680
 H          4.8658522745        0.5792417916       -2.4072784473
 H          5.2827671455       -1.1424760050       -2.4526988875
 H          6.5148955669       -3.6930464678        0.5178806353
 H          5.3575826287       -3.0958821686        1.7143374416
 H          4.0935423259       -3.7707690485       -0.1959603157
 H          5.1571721961       -2.8996433818       -1.3172523249
 O          2.8174755475       -1.8688977778        0.6807332799
 C          1.9464811143       -0.8418338692        0.9986267950
 O          1.0832592819       -1.1522893022        1.8459038286
 H         -1.4602821811        0.6613232773        0.9606493220
 C         -1.2553746219        1.1392880454        0.0138437902
 C          0.0213068649        1.6104473905       -0.2605471949
 C          0.2674429683        2.2008089254       -1.4959022658
 C         -0.7450480258        2.3095223988       -2.4311828931
 C         -2.0154709313        1.8362454862       -2.1561681785
 C         -2.2732820263        1.2478616903       -0.9231598402
 N         -3.5697013594        0.8037110212       -0.6077277424
 S         -3.7667632029       -0.5704465905        0.3523414719
 O         -3.5334573256       -0.2143559398        1.7289459632
 O         -2.9865969047       -1.6659990040       -0.1799669890
 C         -5.5077808393       -0.8662028679        0.1013483341
 C         -6.4141064001       -0.1012460891        0.8113630669
 C         -7.7691125678       -0.2985136629        0.5989958912
 C         -8.1935451034       -1.2517424807       -0.3149478686
 C         -7.2726635352       -2.0135427967       -1.0181943093
 C         -5.9155677724       -1.8200703273       -0.8115919817
 H         -5.1634226754       -2.3937653872       -1.3291578801
 H         -7.6055120304       -2.7561797816       -1.7252830482
 H         -9.2487412926       -1.4038926411       -0.4781292755
 H         -8.4878521731        0.2899891209        1.1460123967
 H         -6.0367632260        0.6203744715        1.5168683302
 H         -4.1705754198        0.7627878929       -1.4204179683
 H         -2.8039460308        1.9221078231       -2.8885683570
 H         -0.5410435514        2.7642290999       -3.3888724746
 H          1.2628736770        2.5475393774       -1.7240041586
 C          1.1033241910        1.4680345883        0.7839050946
 H          0.6267345420        1.0880363974        1.6984138700
 C          1.7492341532        2.8028138844        1.1017459951
 C          0.9923929507        3.7883181058        1.9379554670
 C          2.1887331475        3.0858071664        2.5050550921
 H          3.0966237038        3.6501569607        2.6566310681
 H          2.0248531924        2.3152027797        3.2450190399
 H          0.0162928093        3.4930037676        2.2936456528
 H          1.0767422141        4.8375915101        1.7009335163
 H          2.3673556193        3.1866983655        0.3016105550
 O          3.3190755738        1.7195297763       -1.1750652667
