  62
        -98.93759292
 C          0.8017676911        1.3781883794       -0.7129899811
 C          1.7924431816        1.6287814296        0.2658520683
 C          2.7708473710        0.5593909792        0.5374902589
 C          2.6529068900       -0.6028713913       -0.1297080200
 C          3.5339097193       -1.8209508018       -0.0418743693
 C          4.8720556391       -1.6414317433       -0.7785615999
 C          5.5456025001       -0.2873262135       -0.5712702113
 H          6.4091986699       -0.2398594146       -1.2398216417
 H          4.8577267005        0.5048948367       -0.8722656318
 C          6.0396421807       -0.0164908726        0.8475685083
 H          6.5572562414        0.9460597371        0.8341740872
 H          6.7681022504       -0.7815728528        1.1256489387
 C          4.9613725912        0.0398386691        1.9313290486
 H          5.4247216917        0.4558022696        2.8310441381
 H          4.6185431306       -0.9571252705        2.1956688696
 C          3.7698625616        0.9354331795        1.6046827882
 H          3.1801570120        1.0769423407        2.5194189283
 H          4.1337090922        1.9348030891        1.3388665272
 H          4.6841768687       -1.7569506041       -1.8485701697
 H          5.5483122688       -2.4387744334       -0.4659261894
 H          2.9858206686       -2.6399781318       -0.5129898983
 H          3.6925643895       -2.0877804409        0.9992314509
 O          1.6792601096       -0.8080095715       -1.0579842195
 C          0.7225810901        0.1479146889       -1.3663872900
 O         -0.1004324905       -0.2293292114       -2.2185321194
 O          1.8690754225        2.7233770401        0.8907504373
 C         -0.2280932883        2.4714058898       -0.9344969517
 C         -1.3541009281        2.3210079614        0.0582040388
 C         -1.8969753271        3.4203859023        0.7131246180
 C         -2.9145846569        3.2555441638        1.6365940086
 C         -3.3879857576        1.9929970244        1.9468086298
 C         -2.8452795685        0.8874031335        1.3027686206
 C         -1.8564181187        1.0608709020        0.3475301901
 H         -1.4544433095        0.1963676413       -0.1565138393
 N         -3.2742382692       -0.4175600660        1.5900640319
 S         -2.1173233800       -1.6299687767        1.6766200526
 O         -2.7285126103       -2.6468097955        2.5102128037
 O         -0.8479691695       -1.1201536071        2.1449468717
 C         -1.9659254410       -2.2726148682        0.0257323531
 C         -0.7590533915       -2.8291942293       -0.3449450568
 C         -0.6320592022       -3.3737652605       -1.6116561264
 C         -1.7109279925       -3.3543768106       -2.4800722760
 C         -2.9181454220       -2.7964066795       -2.0904578461
 C         -3.0531152913       -2.2522318283       -0.8238642465
 H         -3.9737952009       -1.8010064174       -0.4925734866
 H         -3.7525278523       -2.7762158596       -2.7730637258
 H         -1.6053981732       -3.7687175915       -3.4702883057
 H          0.3113300074       -3.7955918814       -1.9195665164
 H          0.0620749788       -2.8022590192        0.3550798428
 H         -3.9482168090       -0.4933347449        2.3385381522
 H         -4.1623453374        1.8609335655        2.6870399002
 H         -3.3300384662        4.1170812045        2.1368508579
 H         -1.5030974266        4.4055279019        0.5107358670
 H          0.2931518124        3.4130609097       -0.6973883027
 C         -0.7203403988        2.5665470789       -2.3709545616
 C         -2.0701704192        2.0889592694       -2.8051935607
 C         -1.7831780883        3.5574116492       -2.7442299221
 H         -1.6748296382        4.1036579483       -3.6689367426
 H         -2.2421195576        4.1223670102       -1.9473619624
 H         -2.1434951199        1.6070131486       -3.7674873103
 H         -2.7195508192        1.6623735404       -2.0568438501
 H          0.0880351309        2.4292033277       -3.0815452118
