  62
        -98.93594262
 C          1.7618755503       -0.9101205543       -0.8227042677
 C          2.0845197044       -0.2771224456        0.4012024238
 C          3.5163867395       -0.2129579959        0.7291797341
 C          4.4179035667       -0.7579895366       -0.1073251050
 C          5.9079405209       -0.8321330988        0.0988908195
 C          6.6621640080        0.5115555909        0.1128692745
 C          6.8717474954        1.1046226817        1.5116356293
 H          6.8400901958        0.2967955138        2.2437052447
 H          7.8739193608        1.5351398280        1.5634853360
 C          5.8906500691        2.2064967368        1.9232251592
 H          5.9893605080        2.3562936634        3.0005436326
 H          6.1779504673        3.1402735630        1.4344055045
 C          4.4202830003        1.9500017771        1.5917808408
 H          4.2522613599        2.1018985178        0.5228317073
 H          3.8184496068        2.7015900778        2.1064478971
 C          3.9122059322        0.5434469761        1.9637012800
 H          3.0144098734        0.6233891838        2.5796600366
 H          4.6685545441       -0.0034227476        2.5246336182
 H          6.1472998342        1.2245021409       -0.5306763574
 H          7.6428303792        0.3277251779       -0.3289881374
 H          6.1062413668       -1.3680142930        1.0298381239
 H          6.2845682390       -1.4430384741       -0.7240707443
 O          4.0608748823       -1.3691340586       -1.2711203773
 C          2.7353616075       -1.4455337403       -1.6646265257
 O          2.5553348393       -2.0046869976       -2.7661092068
 O          1.2248068210        0.2036695033        1.1835847133
 C          0.3112885110       -1.0159514204       -1.2549394016
 C         -0.3195762017        0.3539115455       -1.3175387072
 C          0.3799901777        1.3961370689       -1.9208433124
 C         -0.1636257114        2.6633835055       -1.9931100463
 C         -1.4240280423        2.9163206608       -1.4804648821
 C         -2.1371241837        1.8813586125       -0.8893149616
 C         -1.5835728487        0.6101126713       -0.8106549458
 H         -2.1538716631       -0.1796015489       -0.3518435454
 N         -3.4058853827        2.1107230211       -0.3414598165
 S         -4.6004203642        0.9468158172       -0.4194689215
 O         -4.5434614773        0.2020975069       -1.6557566868
 O         -5.8286502001        1.6742745066       -0.1775734673
 C         -4.2892120721       -0.1316157446        0.9627225357
 C         -4.5841699681       -1.4746201062        0.8347464140
 C         -4.3814176631       -2.3133310079        1.9195737928
 C         -3.8897709459       -1.7964459105        3.1081048454
 C         -3.6017354501       -0.4448593397        3.2211789693
 C         -3.8062725708        0.3998051184        2.1418816425
 H         -3.5861101036        1.4527765504        2.1961127320
 H         -3.2152147383       -0.0469023527        4.1456312596
 H         -3.7283541373       -2.4511233422        3.9500391520
 H         -4.6051482468       -3.3649427235        1.8332938457
 H         -4.9533069536       -1.8361266769       -0.1120479265
 H         -3.7705862313        3.0431741656       -0.4667679076
 H         -1.8498705146        3.9067381225       -1.5346556789
 H          0.3954223447        3.4623077009       -2.4570095006
 H          1.3629882418        1.1983941058       -2.3272852241
 H          0.3240846635       -1.4301144619       -2.2743130968
 C         -0.4265446559       -1.9786703062       -0.3471308076
 C         -1.5861006247       -2.7736362757       -0.8648311091
 C         -0.2792259791       -3.4505992139       -0.5834423279
 H         -0.2112569438       -4.1061418775        0.2714711975
 H          0.3315219675       -3.7583809120       -1.4199745014
 H         -2.4146383554       -2.9640179531       -0.1995514383
 H         -1.8750727670       -2.6261197353       -1.8947836470
 H         -0.4589260655       -1.6365030363        0.6811067161
