  62
        -98.94066264
 C         -2.2811479549       -0.9677756847       -0.2576555049
 C         -3.6082687680       -1.1755357127        0.1908035770
 C         -4.6197577881       -0.2530317613       -0.3404436880
 C         -4.2448428574        0.7015748752       -1.2114773155
 C         -5.1588380781        1.7438858452       -1.7865510394
 C         -5.1651549285        3.0119608906       -0.9213212259
 C         -5.3762753334        2.7411647181        0.5683878078
 H         -4.5146886115        2.1918518255        0.9552874533
 H         -5.3933532046        3.7085011777        1.0751354497
 C         -6.6612657194        1.9682495266        0.8972279056
 H         -7.1489331418        2.4472276644        1.7488303211
 H         -7.3519221560        2.0234647203        0.0551417492
 C         -6.4415463300        0.5026494412        1.2769424787
 H         -5.6796543501        0.4372309382        2.0577645900
 H         -7.3742475603        0.1169205748        1.6967844743
 C         -6.0362971321       -0.4313904957        0.1294553916
 H         -6.7352333791       -0.3188452188       -0.7015390160
 H         -6.1020925958       -1.4590397713        0.4983066861
 H         -4.2050243619        3.5187226251       -1.0443064876
 H         -5.9499506452        3.6761636526       -1.2877374051
 H         -4.8031543260        1.9983850967       -2.7863489869
 H         -6.1651126369        1.3365556091       -1.8614175428
 O         -2.9638412276        0.8592649124       -1.6336239176
 C         -1.9461962971        0.0453746125       -1.1557571023
 O         -0.8179322798        0.3216887152       -1.6071145811
 O         -3.9297041040       -2.0856824660        1.0011719942
 C         -1.1802348068       -1.8634711018        0.2844384041
 C         -0.2162899203       -1.0202356293        1.0819376322
 C         -0.6981462288       -0.3597017012        2.2104158931
 C          0.1279782279        0.4542580025        2.9590278436
 C          1.4505563063        0.6327154182        2.5919965620
 C          1.9445387653       -0.0278038611        1.4738488157
 C          1.1142068319       -0.8578264959        0.7312757304
 H          1.5171375900       -1.3493847947       -0.1372014706
 N          3.3009200364        0.1065750239        1.1181221055
 S          3.7277346877        0.3339486126       -0.5013214405
 O          3.1040618610        1.5304058968       -1.0221482435
 O          3.5062590216       -0.8889725786       -1.2284345194
 C          5.4813868697        0.6019491401       -0.3061516518
 C          5.9841659186        1.8883503398       -0.3478443270
 C          7.3448772687        2.0834387279       -0.1690678360
 C          8.1748767968        0.9945874686        0.0502958522
 C          7.6558565204       -0.2912187583        0.0887126948
 C          6.2966767345       -0.4928971652       -0.0905562976
 H          5.8495888452       -1.4730425195       -0.0773851111
 H          8.3047744285       -1.1355347775        0.2567326270
 H          9.2332826644        1.1487794308        0.1891702287
 H          7.7510132295        3.0816024731       -0.2019955125
 H          5.3014477340        2.7029265797       -0.5297919289
 H          3.7629588468        0.8114747126        1.6791876768
 H          2.0959743469        1.2776075176        3.1694674265
 H         -0.2597735505        0.9613962898        3.8298252824
 H         -1.7357182259       -0.4921735483        2.4860821719
 H         -1.6833297506       -2.5551381538        0.9761830442
 C         -0.5304015568       -2.6681639671       -0.8192589888
 C          0.1798217543       -3.9454773044       -0.4882298658
 C         -1.1306828393       -3.9829408323       -1.2138607828
 H         -1.1362479253       -4.2528153834       -2.2592567411
 H         -2.0062350896       -4.3110756012       -0.6727840206
 H          1.0794550942       -4.1872589024       -1.0336627395
 H          0.1950898091       -4.2520983846        0.5467272983
 H         -0.1216982745       -2.0490786621       -1.6105563773
