  62
        -98.93752421
 C         -2.4357400727       -1.1065909114       -0.0385059046
 C         -3.5261617936       -0.7655736620        0.7972962539
 C         -4.5431802603        0.1349983855        0.2287065074
 C         -4.3830724191        0.6026233702       -1.0234775908
 C         -5.2606119186        1.4984973207       -1.8726440323
 C         -6.3977182493        2.3008217348       -1.2453356119
 C         -5.9496457059        3.4126874990       -0.2972449120
 H         -6.8394235755        3.8475324264        0.1632699941
 H         -5.4631787791        4.1952390788       -0.8849440233
 C         -4.9771179982        2.9913156002        0.8015694390
 H         -4.7405859100        3.8777796715        1.3963000425
 H         -4.0425508830        2.6475348740        0.3533549811
 C         -5.4945439742        1.9169320247        1.7559445860
 H         -6.4479640673        2.2328799829        2.1837158268
 H         -4.7738481679        1.8288693183        2.5733585233
 C         -5.6713085167        0.5166260499        1.1433464463
 H         -6.6270924726        0.4250036214        0.6331565851
 H         -5.6641129264       -0.2116501351        1.9594588978
 H         -7.0988694375        1.6362941225       -0.7492033255
 H         -6.9384825153        2.7705205397       -2.0714978771
 H         -5.6822650593        0.8504785867       -2.6490305483
 H         -4.5775214370        2.1846716430       -2.3832746867
 O         -3.3098495914        0.2501950402       -1.7897859399
 C         -2.3139704264       -0.5954949056       -1.3289768956
 O         -1.4065649950       -0.8055437509       -2.1563233320
 O         -3.6522714356       -1.2036642333        1.9719729744
 C         -1.3622021450       -2.0260106616        0.5191043319
 C         -0.0970247971       -1.2273243678        0.7125898931
 C          0.0200140965       -0.4074114721        1.8319954580
 C          1.1489619076        0.3652276791        2.0266984672
 C          2.1822005116        0.3444351290        1.1056321262
 C          2.0737654814       -0.4659760669       -0.0157624216
 C          0.9438710282       -1.2526807552       -0.2020356410
 H          0.8679002692       -1.8683006488       -1.0844932360
 N          3.1075377361       -0.4724118543       -0.9671850875
 S          4.6824189409       -0.7053448995       -0.4432032007
 O          5.3892293711       -1.2413266506       -1.5860569883
 O          4.7260852683       -1.4946045689        0.7661912980
 C          5.2757818447        0.9416002224       -0.1174657347
 C          5.2047396798        1.8721181247       -1.1355718853
 C          5.6702603968        3.1561424467       -0.9019678140
 C          6.1989095097        3.4853312225        0.3375097989
 C          6.2667448938        2.5386940778        1.3481530236
 C          5.8016776031        1.2526195892        1.1211288174
 H          5.8292751653        0.4852968528        1.8784120874
 H          6.6780636336        2.7967100484        2.3107739277
 H          6.5600569261        4.4857677869        0.5163884725
 H          5.6189056115        3.8950090243       -1.6854611404
 H          4.7891916179        1.5758999188       -2.0845057694
 H          2.9049310616       -1.0314446255       -1.7829826101
 H          3.0639586629        0.9476893488        1.2476988075
 H          1.2261623342        0.9928345704        2.9014687074
 H         -0.7923879733       -0.3818089652        2.5449955722
 H         -1.7264697343       -2.3276062843        1.5106383251
 C         -1.1804027885       -3.2668709310       -0.3292460484
 C         -0.4184538959       -4.4306878027        0.2286491120
 C         -1.9028557853       -4.5243007425        0.0460892152
 H         -2.2870054397       -5.1523587309       -0.7436842432
 H         -2.5286679403       -4.4977263424        0.9259633837
 H          0.2195470619       -4.9968316890       -0.4330442849
 H         -0.0340680081       -4.3375168485        1.2332780152
 H         -1.0790784433       -3.0540783404       -1.3867027233
