  62
        -98.93847249
 C         -2.2445888691       -1.1762209915        0.2743940103
 C         -2.4340032178       -0.0871021331       -0.6071387631
 C         -3.3680631982        0.9664731589       -0.1650560262
 C         -3.9651126603        0.8706435969        1.0367389665
 C         -4.9090177815        1.8076765972        1.7609139932
 C         -5.6338855167        2.9232255157        1.0118687152
 C         -6.6555149679        2.4454218096       -0.0191462343
 H         -7.4916644621        1.9803870115        0.5089432418
 H         -7.0406287928        3.3207108868       -0.5468771939
 C         -6.1378827676        1.4370235652       -1.0418125077
 H         -5.8575522582        0.5113058135       -0.5351508642
 H         -6.9614093760        1.1959873010       -1.7193966284
 C         -4.9614309150        1.9127945703       -1.8921608395
 H         -4.8075369141        1.1733298034       -2.6825630823
 H         -5.2114222425        2.8630987591       -2.3678061491
 C         -3.6249740517        2.0744121227       -1.1458884314
 H         -2.8182505242        2.0276710692       -1.8832749860
 H         -3.5577456165        3.0423869464       -0.6546222411
 H         -4.9167520317        3.5970035519        0.5520818584
 H         -6.1728019323        3.5029418252        1.7662949983
 H         -5.6492094679        1.1637179068        2.2462540833
 H         -4.3185361771        2.2594849943        2.5659334830
 O         -3.7261394682       -0.1833689541        1.8700492303
 C         -2.8857320710       -1.2200773113        1.5157377859
 O         -2.7948735699       -2.1178604866        2.3764071425
 H          0.2181491046       -0.5930281333       -1.3737752273
 C          0.7552777962       -1.0618918877       -0.5626714763
 C          0.1057957976       -1.9969262399        0.2306317622
 C          0.8001207972       -2.5639274850        1.2930090956
 C          2.1116875302       -2.2044803440        1.5491226721
 C          2.7552403980       -1.2717408347        0.7554490990
 C          2.0653795729       -0.6899490141       -0.2998151649
 N          2.7050601067        0.2722600127       -1.1043107141
 S          3.4019901122        1.5831467723       -0.3167694835
 O          2.7423837462        1.8601383352        0.9392566420
 O          3.4127218183        2.6545426739       -1.2890634600
 C          5.0777896266        1.0546761576       -0.0251151974
 C          5.8328448963        0.6594509677       -1.1121428121
 C          7.1405735612        0.2508004603       -0.9052605125
 C          7.6691409172        0.2466864434        0.3771404163
 C          6.8993322955        0.6496348699        1.4575367899
 C          5.5899101998        1.0589112532        1.2574603527
 H          4.9516912024        1.3754198256        2.0672035555
 H          7.3117943946        0.6461544266        2.4537415354
 H          8.6871919956       -0.0722637956        0.5356669673
 H          7.7423622191       -0.0630409392       -1.7428710749
 H          5.3849501227        0.6812499806       -2.0915457427
 H          2.1239483223        0.5942821854       -1.8660764236
 H          3.7746745057       -0.9831607340        0.9535238354
 H          2.6382006012       -2.6535348675        2.3774885278
 H          0.2961668837       -3.2759467948        1.9305861194
 C         -1.3367550942       -2.3596078986       -0.0302958279
 H         -1.6198825859       -3.1377158289        0.6910097786
 C         -1.5310226376       -2.9117995565       -1.4288641002
 C         -1.1085662843       -4.3196421084       -1.7171432555
 C         -2.5649516253       -3.9708284579       -1.6584878290
 H         -3.1302124568       -3.9475061788       -2.5781058457
 H         -3.1364179897       -4.3045267651       -0.8042920177
 H         -0.6709630861       -4.5389374356       -2.6788199901
 H         -0.6926077493       -4.8929130263       -0.9025138934
 H         -1.3971293933       -2.1742883714       -2.2087153527
 O         -1.8596005063        0.0326778176       -1.7236240231
