  62
        -98.93746895
 C         -2.0103404965       -0.5300622870       -0.2788524407
 C         -3.0145165637       -0.9390481702        0.6344343113
 C         -4.2114456199       -0.0897637375        0.7144224494
 C         -4.2750809690        1.0220984607       -0.0403438758
 C         -5.4505405527        1.9538320702       -0.1242781653
 C         -6.5501015609        1.3368116841       -1.0121956488
 C         -7.8427149923        0.9965958614       -0.2700839121
 H         -8.3955069405        1.9188824606       -0.0792056540
 H         -8.4500628374        0.3807809434       -0.9368565109
 C         -7.6731742081        0.2672094290        1.0661448852
 H         -8.6525516803       -0.1340488432        1.3353573746
 H         -7.4067837299        0.9840288101        1.8443395292
 C         -6.6509922209       -0.8767392753        1.0816036300
 H         -6.5067293732       -1.2771805210        0.0779446891
 H         -7.0571493049       -1.6862416415        1.6914761137
 C         -5.2830225035       -0.5056321109        1.6840974411
 H         -5.4157145685        0.2751944686        2.4381708500
 H         -4.8745891407       -1.3847006461        2.1912575863
 H         -6.1477890989        0.4346155823       -1.4776871070
 H         -6.7926873445        2.0260496532       -1.8224565338
 H         -5.0931479596        2.8888877051       -0.5562349108
 H         -5.8321876211        2.1550810068        0.8742721088
 O         -3.2836173489        1.3931976726       -0.8899510544
 C         -2.1295655546        0.6359263683       -1.0345476390
 O         -1.3193800597        1.1060992113       -1.8559893348
 O         -2.9132410462       -1.9711052149        1.3501180000
 C         -0.7546722322       -1.3818363217       -0.3795276347
 C          0.3811716812       -0.6300212168        0.2693064991
 C          0.5597524288       -0.7216608538        1.6469187884
 C          1.5563854904       -0.0024979461        2.2798992317
 C          2.3932587713        0.8269439882        1.5540256122
 C          2.2217085310        0.9261360149        0.1794884752
 C          1.2319365554        0.1885210176       -0.4578599648
 H          1.0975972179        0.2901878225       -1.5229199078
 N          3.0567834112        1.7742816833       -0.5633858756
 S          4.6922525254        1.7977082088       -0.2298355416
 O          4.9437078508        2.6156800855        0.9311803188
 O          5.3235937549        2.2327732298       -1.4559735210
 C          5.1222451591        0.1026241117        0.1249014489
 C          4.9215106503       -0.8395292823       -0.8645781515
 C          5.2241863815       -2.1649035634       -0.5992784016
 C          5.7184317589       -2.5243726250        0.6454879070
 C          5.9181469359       -1.5663329193        1.6268930557
 C          5.6164727130       -0.2389015654        1.3670556172
 H          5.7558291535        0.5377088382        2.1013690220
 H          6.3044686557       -1.8482768986        2.5930971973
 H          5.9501897157       -3.5577303171        0.8499233306
 H          5.0714045781       -2.9117811147       -1.3616523115
 H          4.5412361498       -0.5259433681       -1.8234434611
 H          2.8658125851        1.7813875637       -1.5537034280
 H          3.1610626690        1.4126001198        2.0329157572
 H          1.6811501869       -0.0825628716        3.3490141828
 H         -0.1058614880       -1.3538289393        2.2174916304
 H         -0.9621197080       -2.2717393293        0.2293983029
 C         -0.4644128247       -1.8215263717       -1.7992033235
 C          0.5226554109       -2.9246506765       -2.0336892437
 C         -0.9388588401       -3.1659364634       -2.2597414075
 H         -1.2961991337       -3.2652796461       -3.2738842345
 H         -1.4725544137       -3.7787859952       -1.5482333178
 H          1.1710317509       -2.8624316198       -2.8941161644
 H          0.9812317300       -3.3726126558       -1.1653648804
 H         -0.5039683516       -1.0134747255       -2.5189888831
