  62
        -98.94475121
 C         -1.8286041605       -0.7147043063        0.3981776339
 C         -2.4657861840       -0.1592320388       -0.7379518746
 C         -3.5309362419        0.8123742015       -0.4562013675
 C         -3.8032099934        1.1600610074        0.8145197389
 C         -4.8404467123        2.1555560314        1.2584953526
 C         -6.2552567204        1.5720234661        1.3746975817
 C         -6.9479357040        1.2757995930        0.0439676153
 H         -7.9990154365        1.0818418450        0.2668117450
 H         -6.9081126535        2.1621510958       -0.5900181164
 C         -6.3739258566        0.0711063826       -0.7148035752
 H         -7.1926658305       -0.5580421558       -1.0711133157
 H         -5.7760606000       -0.5377625615       -0.0327749728
 C         -5.5206292719        0.4346799109       -1.9301256226
 H         -6.1420824911        0.9298214930       -2.6795510457
 H         -5.1370593703       -0.4900466944       -2.3685026823
 C         -4.3231983166        1.3404741828       -1.6136691113
 H         -3.6643475648        1.3575331771       -2.4855095584
 H         -4.6625468977        2.3565162085       -1.4125473406
 H         -6.2083712768        0.6588727900        1.9725386977
 H         -6.8621393621        2.2967277033        1.9223960799
 H         -4.5312638864        2.5078770465        2.2450973564
 H         -4.8504362540        3.0047727689        0.5744957014
 O         -3.1254879894        0.6458709012        1.8759394876
 C         -2.1385569018       -0.3106324689        1.6961011015
 O         -1.6072476953       -0.7059365623        2.7547931589
 H          0.4446787875        0.5652705815        0.7262653430
 C          0.9151339000        0.0721011723       -0.1159712495
 C          0.4251518857       -1.1589717907       -0.5360706365
 C          1.0482575415       -1.7884975385       -1.6048758812
 C          2.1120763770       -1.1825501835       -2.2524280682
 C          2.5832183157        0.0511151954       -1.8446442902
 C          1.9790736545        0.6803744305       -0.7627616493
 N          2.4657856542        1.9238293973       -0.3232968784
 S          4.1234628522        2.0888359814       -0.1562814084
 O          4.3044602149        3.0921274484        0.8694718429
 O          4.7115634202        2.3883127078       -1.4380280440
 C          4.6947520355        0.4967987867        0.4120326903
 C          5.5786704844       -0.2340760845       -0.3551473712
 C          5.9777804340       -1.4841124701        0.0903999315
 C          5.4844367672       -1.9807234365        1.2866541910
 C          4.5995114435       -1.2325436704        2.0482766348
 C          4.1989833434        0.0185776028        1.6089257663
 H          3.5145219168        0.6252303934        2.1807110253
 H          4.2155182870       -1.6193830631        2.9787093759
 H          5.7902969917       -2.9563187051        1.6299675719
 H          6.6671890910       -2.0674202948       -0.4982359672
 H          5.9338598480        0.1885793781       -1.2807402620
 H          1.9795243267        2.2922280115        0.4805682468
 H          3.4001448945        0.5423396337       -2.3478300387
 H          2.5791003866       -1.6778599610       -3.0897111566
 H          0.6956731665       -2.7499874200       -1.9390899269
 C         -0.7360917411       -1.7543991170        0.2236829555
 H         -0.3848955120       -1.9965399831        1.2375718421
 C         -1.2989710656       -3.0093618944       -0.4094378790
 C         -0.6786255409       -4.3424361552       -0.1212629182
 C         -2.0159456117       -3.9969325387        0.4596839257
 H         -2.8941612034       -4.4875400328        0.0674565894
 H         -2.0758304884       -3.7765270837        1.5159380740
 H          0.1708404922       -4.3652742159        0.5442877561
 H         -0.6402541825       -5.0755481471       -0.9127183775
 H         -1.7004313486       -2.8318505430       -1.4002821725
 O         -2.1635879693       -0.4536803164       -1.9227063795
