  62
        -98.93546672
 C         -2.3823807893       -0.6331390821        0.5012648001
 C         -2.3266861796        0.1629409778       -0.6652463000
 C         -2.1969729007        1.6180423679       -0.4659859601
 C         -2.1496361213        2.1049832281        0.7867604699
 C         -1.9581109923        3.5284830282        1.2478541398
 C         -2.6963218130        4.6316892777        0.4753235696
 C         -1.7742033234        5.4904335282       -0.3925790104
 H         -0.8420318136        5.6545708589        0.1519697298
 H         -2.2430768541        6.4659454779       -0.5400915205
 C         -1.4560507928        4.9183137783       -1.7726773503
 H         -0.6888300731        5.5518341988       -2.2236618502
 H         -2.3447367227        4.9826308677       -2.4042364804
 C         -0.9638588418        3.4699126687       -1.7835375100
 H         -0.2621289818        3.2901951792       -0.9682677699
 H         -0.4148243015        3.3083452690       -2.7137783599
 C         -2.1002302510        2.4374155879       -1.7233092001
 H         -1.9705391804        1.7004636479       -2.5219021001
 H         -3.0611461014        2.9248008072       -1.9095937904
 H         -3.1691322335        5.2861167374        1.2095845594
 H         -3.4910898926        4.1951698671       -0.1267655405
 H         -2.2782556125        3.5303982181        2.2927703497
 H         -0.8833292625        3.7320016090        1.2542848600
 O         -2.2380342909        1.2989958881        1.8855062299
 C         -2.3204698699       -0.0760483420        1.7752811600
 O         -2.3424001397       -0.6828923819        2.8679134101
 H          0.0520554410       -1.0578762004        0.4997249705
 C          0.0329159417       -1.9003030905       -0.1766950594
 C         -1.1531598878       -2.5968069913       -0.3701522995
 C         -1.1463314669       -3.6890453114       -1.2281334094
 C          0.0179379035       -4.0568254107       -1.8814074892
 C          1.1898550730       -3.3461635598       -1.7026075891
 C          1.1920952321       -2.2475786097       -0.8482196291
 N          2.3486774315       -1.4664946589       -0.6943808590
 S          2.5074835905       -0.3800278887        0.5780898009
 O          2.3614835908       -1.0589366087        1.8484391210
 O          1.6429568098        0.7508785407        0.3491679707
 C          4.2073523502        0.1039067425        0.3412644112
 C          4.4956641297        1.0782781426       -0.5955344789
 C          5.8181265295        1.4347991735       -0.8066246687
 C          6.8251471998        0.8140127442       -0.0823956384
 C          6.5206995803       -0.1605777559        0.8559712116
 C          5.1999694905       -0.5221554868        1.0712694214
 H          4.9142984209       -1.2668467769        1.7967356314
 H          7.3049390605       -0.6391593353        1.4199614918
 H          7.8533866096        1.0940377749       -0.2481236583
 H          6.0577451491        2.1942166736       -1.5332676087
 H          3.6784321995        1.5372846220       -1.1274390390
 H          3.2069178919       -1.9597858683       -0.8942570488
 H          2.0917270433       -3.6260918392       -2.2244920789
 H          0.0103634142       -4.9087585007       -2.5442833491
 H         -2.0531230365       -4.2493700321       -1.3878025195
 C         -2.3838885582       -2.1450065021        0.3828277102
 H         -2.3131592781       -2.5304928020        1.4118952603
 C         -3.6764066778       -2.6368855831       -0.2363368400
 C         -4.2590592869       -3.9566325734        0.1691923100
 C         -4.9103828179       -2.6822368539        0.6122823898
 H         -5.8528597180       -2.3992686446        0.1684113896
 H         -4.8078723083       -2.3858986037        1.6464886698
 H         -3.7254128267       -4.5333936830        0.9097082302
 H         -4.7598661864       -4.5510420339       -0.5800734400
 H         -3.7871208378       -2.3192356232       -1.2665828200
 O         -2.3678087791       -0.3196000123       -1.8282513599
