  62
        -98.94498066
 C          2.4378257514        1.1842008004       -0.0833151056
 C          3.2068504069        0.4983609206        0.8948213245
 C          3.8839226230       -0.7242871348        0.4540754657
 C          3.7645135027       -1.1258464812       -0.8239573486
 C          4.4039416258       -2.3425421087       -1.4354012772
 C          3.6130683873       -3.6385007029       -1.2096689469
 C          3.6644269274       -4.1913343993        0.2152394115
 H          3.2611276765       -5.2052378930        0.1788936698
 H          4.7034250527       -4.2645892970        0.5381333893
 C          2.8603583218       -3.3786798650        1.2399722407
 H          2.1499193239       -2.7318883669        0.7181396198
 H          2.2707932930       -4.0577988963        1.8601755145
 C          3.7106347618       -2.5275352678        2.1836570134
 H          4.3226893915       -3.1789129656        2.8113614786
 H          3.0368767939       -1.9654048242        2.8351694244
 C          4.6319701041       -1.5250789055        1.4765793230
 H          5.0198733924       -0.8295506707        2.2246470698
 H          5.4696504203       -2.0454139792        1.0129934220
 H          2.5721438446       -3.4677413654       -1.4963064803
 H          4.0238871067       -4.3929120644       -1.8847537345
 H          4.4618366534       -2.1570121928       -2.5101296893
 H          5.4159983026       -2.4597607699       -1.0469915838
 O          3.0378628835       -0.4325532956       -1.7378511129
 C          2.3358570531        0.7135946543       -1.3921994247
 O          1.6914172654        1.1987717396       -2.3457090082
 H         -0.2422671879        1.7418441545       -1.3795443879
 C         -0.6038775537        1.7287631457       -0.3618942568
 C          0.2568331573        2.0691495585        0.6725302827
 C         -0.2185787835        2.0098158257        1.9774711923
 C         -1.5206149623        1.6187712523        2.2371052876
 C         -2.3696809593        1.2662001281        1.2030843547
 C         -1.8996878596        1.3125037908       -0.1024804744
 N         -2.7465054188        0.9024389136       -1.1592395161
 S         -3.0784983336       -0.7516627742       -1.1574266491
 O         -2.0016214362       -1.5044444469       -0.5522617357
 O         -3.4095580775       -1.0860700194       -2.5256009111
 C         -4.5467888870       -0.8743962010       -0.1574857023
 C         -5.7013238606       -0.2754504456       -0.6228466038
 C         -6.8513431480       -0.3519588638        0.1464097684
 C         -6.8275808960       -1.0229311288        1.3602331123
 C         -5.6612975594       -1.6217605529        1.8116681112
 C         -4.5070686619       -1.5485481319        1.0471399562
 H         -3.5755363326       -1.9937131476        1.3584688852
 H         -5.6445453548       -2.1434051593        2.7550907051
 H         -7.7235906074       -1.0804714414        1.9578450830
 H         -7.7603626580        0.1112866562       -0.2017263367
 H         -5.6754053626        0.2299906644       -1.5737118066
 H         -2.3696479071        1.1501906782       -2.0648854369
 H         -3.3818654134        0.9506681718        1.3973547796
 H         -1.8755526958        1.5799277786        3.2555982895
 H          0.4497300029        2.2517793906        2.7911184886
 C          1.6957673371        2.4263486019        0.3864803041
 H          2.1694918130        2.6980348892        1.3393338106
 C          1.8127850655        3.6032083248       -0.5601656162
 C          1.5426689688        4.9813627755       -0.0375351971
 C          2.9416817101        4.5724674695       -0.3856497604
 H          3.3999798133        4.9914465113       -1.2688414335
 H          3.6364039828        4.3900991116        0.4211661328
 H          1.2885769603        5.0774737151        1.0071150151
 H          1.0373013548        5.6853057711       -0.6805389297
 H          1.5074914807        3.3783469285       -1.5736290541
 O          3.3266585171        0.8989301994        2.0827208560
