  62
        -98.94878146
 C          1.8167805773        1.3323853422       -0.2476601929
 C          2.8878962880        0.6443588988        0.3667708406
 C          3.2600785934       -0.6352545913       -0.2439713408
 C          2.5955749467       -1.0756151729       -1.3282845918
 C          2.8461605668       -2.3695169960       -2.0531684759
 C          2.1205003467       -3.5642990543       -1.4186770950
 C          2.7353314832       -4.0746626879       -0.1147643815
 H          2.2836341779       -5.0467692531        0.0931599895
 H          3.8061970302       -4.2324856933       -0.2517423996
 C          2.4948656145       -3.1562319118        1.0916772060
 H          1.6674150061       -2.4778293006        0.8663784650
 H          2.1814579899       -3.7582211185        1.9488742145
 C          3.7168115041       -2.3467733726        1.5287303112
 H          4.4934885149       -3.0257699899        1.8888268313
 H          3.4204797382       -1.7034954491        2.3618157567
 C          4.3166061415       -1.4559087011        0.4328070052
 H          5.0241273656       -0.7672925865        0.9019402228
 H          4.8508114657       -2.0650950391       -0.2957305790
 H          1.0798359191       -3.2820688693       -1.2369293191
 H          2.1274247683       -4.3797560435       -2.1459587396
 H          2.4692926158       -2.2367311778       -3.0695025334
 H          3.9169295939       -2.5702845105       -2.1001388361
 O          1.5953900791       -0.3679033694       -1.9112570703
 C          1.1376526975        0.8116771341       -1.3502068222
 O          0.1502692890        1.3064705431       -1.9278732136
 H          0.3640421324        0.4848321312        1.6823797010
 C         -0.4427819452        1.1605637319        1.4247656705
 C         -0.1509195269        2.3584376589        0.7827219006
 C         -1.2016212719        3.2117534414        0.4736651993
 C         -2.5087674157        2.8497825635        0.7550345870
 C         -2.7969350600        1.6215378445        1.3223105736
 C         -1.7493481040        0.7760670829        1.6605948751
 N         -2.0460118453       -0.5350862028        2.1415085980
 S         -1.9256290519       -1.6382841395        0.8617309410
 O         -2.2674311396       -2.9285089051        1.4238508606
 O         -0.6296981864       -1.5719421130        0.2212393580
 C         -3.2112474135       -1.0756375380       -0.2255250144
 C         -4.5028734055       -1.5001951335        0.0201732825
 C         -5.5277344566       -1.0243000758       -0.7808792899
 C         -5.2437964120       -0.1311164850       -1.8035817147
 C         -3.9418407463        0.2851685895       -2.0347818464
 C         -2.9091604870       -0.1880956212       -1.2392325034
 H         -1.8870447114        0.1246403463       -1.3948680172
 H         -3.7160161391        0.9819034719       -2.8260114154
 H         -6.0414694884        0.2439005494       -2.4253160596
 H         -6.5412486648       -1.3465730220       -0.6043087575
 H         -4.6701461732       -2.1955179374        0.8262446000
 H         -1.4057038948       -0.8359388483        2.8656352509
 H         -3.8120951220        1.3062146033        1.4999452139
 H         -3.3144929547        3.5201811444        0.4993733786
 H         -0.9977387700        4.1528548797       -0.0105091181
 C          1.2858979207        2.6039877787        0.3941010628
 H          1.8842946300        2.7483682864        1.3059315887
 C          1.4759934934        3.7979882272       -0.5155454132
 C          1.6166116977        5.1731602506        0.0641630811
 C          2.8056711811        4.4882227663       -0.5374301915
 H          3.1854539303        4.8441981305       -1.4831905645
 H          3.5709522285        4.1099120662        0.1245764140
 H          1.1824693565        6.0047210975       -0.4698010147
 H          1.5784649128        5.2689760045        1.1386921468
 H          0.9537620371        3.6873429870       -1.4591234607
 O          3.4929597446        1.0730271563        1.3886617370
