  62
        -98.93792644
 C         -2.0688076298       -1.3252318798       -0.0659628098
 C         -2.4817334199       -0.2287806596       -0.8559881695
 C         -3.8743530898        0.2345852404       -0.6769643692
 C         -4.6613641997       -0.3959049097        0.2141658009
 C         -6.0848221896       -0.0829468996        0.5926934112
 C         -6.2000141294        1.1492474802        1.5040431614
 C         -5.3488848594        2.3433113002        1.0804986014
 H         -4.3000721694        2.0424610102        1.0448154312
 H         -5.4392859992        3.1076731601        1.8569187215
 C         -5.7403523796        2.9811349605       -0.2503805884
 H         -5.1200422196        3.8722291504       -0.3770567384
 H         -6.7817182996        3.3068705905       -0.1992656582
 C         -5.5650190199        2.1022223106       -1.4908034786
 H         -5.6335397700        2.7565391008       -2.3648888285
 H         -6.3743503799        1.3826937307       -1.5810946386
 C         -4.2176143899        1.3930633806       -1.5824843790
 H         -3.4153299499        2.1282701705       -1.4504514190
 H         -4.0932607402        1.0133695907       -2.6039509790
 H         -5.8860222992        0.8570546001        2.5090954213
 H         -7.2491894594        1.4458460903        1.5515806316
 H         -6.6916432398        0.0377245705       -0.2997038287
 H         -6.4617959896       -0.9524341097        1.1358202111
 O         -4.2149392096       -1.4462478898        0.9612828206
 C         -2.9283955797       -1.9302577999        0.8525691103
 O         -2.6704811596       -2.8887444900        1.6082875501
 H          0.9483108400       -0.0662006898       -1.4727303801
 C          1.0299882902        0.0077561001       -0.4002275801
 C          0.2912881803       -0.8411421800        0.4086969399
 C          0.3994668706       -0.7081082502        1.7904630799
 C          1.2191747807        0.2559661997        2.3461953399
 C          1.9451396706        1.1114838897        1.5356910799
 C          1.8421420604        0.9878316999        0.1568365799
 N          2.5741454002        1.8564858600       -0.6715410101
 S          4.2052906203        2.0480277899       -0.3541262204
 O          4.3802323206        2.9292580097        0.7732740097
 O          4.7882901401        2.4898282400       -1.6010083105
 C          4.7762391903        0.4094989498        0.0586646792
 C          5.1026627605        0.0974203196        1.3623643591
 C          5.4836010805       -1.2003476605        1.6647024589
 C          5.5281269403       -2.1582669003        0.6640437987
 C          5.2011902200       -1.8277962801       -0.6424051312
 C          4.8178421301       -0.5329279901       -0.9498860809
 H          4.5636283899       -0.2378027099       -1.9552248708
 H          5.2397273898       -2.5745319300       -1.4191355613
 H          5.8208901302       -3.1687224504        0.9022131385
 H          5.7405685807       -1.4599828407        2.6790192788
 H          5.0581820507        0.8721464395        2.1099372193
 H          2.4037529501        1.7172079002       -1.6564905401
 H          2.5786074807        1.8793751196        1.9491501499
 H          1.2912583309        0.3470280295        3.4193776899
 H         -0.1802640994       -1.3668280303        2.4224918199
 C         -0.6538395899       -1.8757009299       -0.1515182001
 H         -0.6340449098       -2.7473948800        0.5160540598
 C         -0.3089400402       -2.3300218797       -1.5541301402
 C          0.8849509297       -3.2105334397       -1.7655969406
 C         -0.4965659403       -3.7700751896       -1.9209600604
 H         -0.8503330305       -4.0061998294       -2.9134805404
 H         -0.8696689402       -4.4358534397       -1.1564012804
 H          1.4522710499       -3.4959121399       -0.8927603307
 H          1.4817201796       -3.0668261096       -2.6532554207
 H         -0.5408931503       -1.5937839896       -2.3135130201
 O         -1.7347251700        0.3533988904       -1.6865427896
