  62
        -98.93950198
 C         -1.6967377300       -1.1608467451        0.3997684732
 C         -1.9916376891        0.0637262946        1.0543421534
 C         -3.3576138313        0.5714367710        0.8917900953
 C         -4.2442284006       -0.1257224073        0.1586348031
 C         -5.6830471552        0.2445271536       -0.0797107222
 C         -5.8903477955        1.2376845105       -1.2312476516
 C         -5.4500454968        2.6726570353       -0.9389403265
 H         -5.8487616877        3.2993138659       -1.7392668119
 H         -5.9048345393        3.0080189896       -0.0062969267
 C         -3.9286150123        2.8666219282       -0.8718251137
 H         -3.4310374235        2.0129161310       -1.3383403013
 H         -3.6488730193        3.7516892326       -1.4478713647
 C         -3.3737764428        3.0514794529        0.5407041478
 H         -3.7626172694        3.9785208910        0.9678989935
 H         -2.2867795788        3.1414888351        0.4710098170
 C         -3.6938476825        1.8987879772        1.5014632415
 H         -4.7443272623        1.9303413338        1.7898809867
 H         -3.0797231697        2.0185414713        2.3970915360
 H         -6.9576123844        1.2480908894       -1.4644751590
 H         -5.3616051265        0.8665900362       -2.1123994079
 H         -6.2055688960       -0.6821780643       -0.3266836860
 H         -6.1128372036        0.6523737083        0.8356238581
 O         -3.9245992390       -1.2956608351       -0.4524168655
 C         -2.6441113213       -1.8294382283       -0.3755396202
 O         -2.5053711683       -2.8843048113       -1.0236303443
 O         -1.1534355786        0.6960384379        1.7488452439
 C         -0.2783168640       -1.6897342134        0.5338146850
 C          0.4891627902       -1.3621570248       -0.7235253942
 C          0.4516575329       -2.1658569144       -1.8574561722
 C          1.1430918137       -1.7968469285       -2.9976179063
 C          1.9093473815       -0.6440634323       -3.0189735132
 C          1.9592940386        0.1607677449       -1.8891079049
 C          1.2359189091       -0.1917777313       -0.7598319748
 H          1.2326824462        0.4612675881        0.0993587056
 N          2.7583668985        1.3301785447       -1.8372708280
 S          4.1870874769        1.1244106368       -0.9653052192
 O          4.9344659823        2.3467809650       -1.1603429870
 O          4.8587454850       -0.0907602135       -1.3769432202
 C          3.6716940804        0.9793210947        0.7282670084
 C          3.7006763474       -0.2606322187        1.3352732009
 C          3.2714108069       -0.3723656464        2.6476906427
 C          2.8233741512        0.7515872427        3.3247662512
 C          2.8080118271        1.9906940533        2.7026472939
 C          3.2355788719        2.1097399700        1.3901604414
 H          3.2382908700        3.0530216314        0.8691102610
 H          2.4560452665        2.8600939411        3.2341455226
 H          2.4805046616        0.6605241831        4.3433993038
 H          3.2808158414       -1.3341173640        3.1362122335
 H          4.0508768405       -1.1076195903        0.7668611632
 H          2.9979499062        1.6863113217       -2.7536804614
 H          2.4671919320       -0.3689255951       -3.9021417108
 H          1.0954163758       -2.4215994785       -3.8770460437
 H         -0.1480610938       -3.0618349363       -1.8516911941
 H          0.1664533934       -1.1047399332        1.3503740398
 C         -0.2061744599       -3.1570014963        0.9006975252
 C          1.1071962673       -3.7122157035        1.3625064646
 C         -0.0175857246       -3.5387156527        2.3369033532
 H         -0.5217880143       -4.4196233404        2.7049626922
 H          0.0518294721       -2.7401917027        3.0607566677
 H          1.3788344038       -4.7123039453        1.0614670375
 H          1.9398858363       -3.0272689120        1.4184084915
 H         -0.8414081578       -3.7916133107        0.2969360354
