  62
        -98.94608641
 C          0.9851225058        1.6385760095        0.6255310193
 C          1.7628449553        1.5410507439       -0.5531643074
 C          2.8798767709        0.5869092550       -0.5044110683
 C          3.0844414785       -0.1339924515        0.6130310433
 C          4.1868350920       -1.1367340746        0.7934812245
 C          3.7445615186       -2.5498104705        0.3914838203
 C          3.0360433012       -2.6152914280       -0.9608958813
 H          2.7882097369       -3.6616053472       -1.1485770071
 H          2.0919078073       -2.0690386800       -0.8968433048
 C          3.8617812184       -2.0716269087       -2.1352261608
 H          4.9168391514       -2.0346356601       -1.8610845230
 H          3.7695882576       -2.7614625358       -2.9765987740
 C          3.4234960976       -0.6957633896       -2.6400143858
 H          2.3458082990       -0.6969169446       -2.8227788852
 H          3.9173961154       -0.5122993059       -3.5980291565
 C          3.7544751613        0.4878561470       -1.7222950444
 H          4.8089198967        0.4522430180       -1.4404654975
 H          3.5813959090        1.4072100152       -2.2893874708
 H          4.6253914715       -3.1941356522        0.3749304003
 H          3.0605676633       -2.9237512897        1.1544864943
 H          5.0435233275       -0.8290485629        0.1966283325
 H          4.4748707069       -1.1411139674        1.8462292011
 O          2.2847630096       -0.0475473931        1.7075451847
 C          1.2178261891        0.8356112466        1.7412203116
 O          0.5628373828        0.8115277777        2.8038874787
 H         -1.2879022564        0.2646203975        0.3091775747
 C         -1.6754343881        0.9866011269       -0.3945191334
 C         -1.1949775053        2.2901896436       -0.3604666291
 C         -1.6986052503        3.2088048999       -1.2711870956
 C         -2.6541412667        2.8222521888       -2.1953509221
 C         -3.1464005053        1.5307032855       -2.2097017800
 C         -2.6558580511        0.6050760292       -1.2945187949
 N         -3.1345459985       -0.7133714614       -1.2732960694
 S         -3.3802294985       -1.4989511952        0.1867374139
 O         -4.4414329142       -2.4442437506       -0.0921666657
 O         -3.6267286068       -0.5639932522        1.2581344166
 C         -1.8817302904       -2.4173363713        0.4671161287
 C         -1.0578523106       -2.1121923634        1.5312857798
 C          0.0739972619       -2.8838338514        1.7450640197
 C          0.3565145990       -3.9454046834        0.9000911653
 C         -0.4773958914       -4.2351745321       -0.1695671972
 C         -1.6073217719       -3.4660366388       -0.3898164986
 H         -2.2910759385       -3.6680043154       -1.1973710424
 H         -0.2511167848       -5.0593066632       -0.8265256480
 H          1.2290321298       -4.5540232352        1.0784743651
 H          0.7242317822       -2.6402654165        2.5710795980
 H         -1.3007213065       -1.2816331735        2.1775055629
 H         -3.8820789351       -0.9020848576       -1.9253531395
 H         -3.9032398737        1.2365371296       -2.9209904883
 H         -3.0306753623        3.5420606067       -2.9063535384
 H         -1.3400978276        4.2247646149       -1.2636697810
 C         -0.1648110884        2.6273224972        0.6901855500
 H         -0.6376517529        2.4824156987        1.6733951482
 C          0.3562786953        4.0465557042        0.6049065740
 C         -0.4162112959        5.1700256427        1.2259798761
 C          0.8648665587        4.7062252146        1.8499178831
 H          1.7346919440        5.3418766207        1.7791114481
 H          0.8123775382        4.1394499693        2.7684969839
 H         -1.3411706949        4.9238936184        1.7257595138
 H         -0.4247908240        6.1282656974        0.7288486182
 H          0.8920903619        4.2397986133       -0.3170526245
 O          1.5478848272        2.2249548961       -1.5875087022
