  62
        -98.94113179
 C          2.2719321798        0.9932534802        0.5766740592
 C          2.1232001298       -0.2523136999       -0.0792247706
 C          3.2330527898       -1.2009335099        0.0951650195
 C          4.2921133699       -0.8472124097        0.8465212193
 C          5.5134514300       -1.6928905697        1.0595550193
 C          6.5856958198       -1.3965289598        0.0016840891
 C          6.0577545897       -1.4073805401       -1.4328995308
 H          5.3581711696       -0.5782832301       -1.5622875009
 H          6.9063682596       -1.2171041002       -2.0935575709
 C          5.3715430996       -2.7167990202       -1.8464431305
 H          5.6554201597       -3.5165216501       -1.1614974604
 H          5.7259843895       -2.9996953903       -2.8398561505
 C          3.8458759796       -2.6355597502       -1.9251774403
 H          3.5549264295       -1.7785916403       -2.5382741005
 H          3.4825523196       -3.5350062303       -2.4295766201
 C          3.1121840598       -2.5372043400       -0.5817225503
 H          2.0445386998       -2.6772830401       -0.7760516901
 H          3.4492926899       -3.3372149999        0.0805485398
 H          7.0078706798       -0.4093873998        0.2033242489
 H          7.3834987199       -2.1344454298        0.1029559292
 H          5.2324304000       -2.7435108897        1.0226425095
 H          5.9190522501       -1.4682382295        2.0473930892
 O          4.3926184000        0.3556308104        1.4682473191
 C          3.3931001399        1.3061362703        1.3447333590
 O          3.6105295000        2.3687199205        1.9613069688
 O          1.1160561297       -0.5582926101       -0.7701953304
 C          1.1934745598        2.0511511001        0.4386182491
 C         -0.1548932801        1.5015983102        0.8356784494
 C         -0.2617638000        0.6966051304        1.9666308095
 C         -1.4822569399        0.1833082304        2.3602653298
 C         -2.6296924900        0.4671023503        1.6392633799
 C         -2.5375031702        1.2755660401        0.5158506197
 C         -1.3098799902        1.7923211700        0.1247977895
 H         -1.2622127003        2.4176568599       -0.7539026106
 N         -3.7178505403        1.5664623299       -0.2157849802
 S         -4.1956540504        0.3534954697       -1.2875095799
 O         -3.0834497904       -0.1139257804       -2.0854931900
 O         -5.3033736705        0.9206558796       -2.0259106199
 C         -4.7773645202       -0.9464836501       -0.2254299796
 C         -6.0373440202       -0.8364440600        0.3297346405
 C         -6.4852173900       -1.8412138199        1.1724686207
 C         -5.6690466100       -2.9294270498        1.4440240108
 C         -4.4069769400       -3.0244444899        0.8768512207
 C         -3.9525522402       -2.0237397101        0.0322502604
 H         -2.9772333002       -2.0529645901       -0.4278741297
 H         -3.7731910400       -3.8703215899        1.0899035008
 H         -6.0181609699       -3.7101829297        2.1012905210
 H         -7.4661830600       -1.7733030999        1.6144618108
 H         -6.6372656202        0.0241701199        0.0845443704
 H         -3.6384217003        2.4238028898       -0.7478598004
 H         -3.5872906000        0.0812283103        1.9476614300
 H         -1.5430873898       -0.4410089794        3.2385920499
 H          0.6334163201        0.4720947905        2.5309553195
 H          1.4585643199        2.8515837903        1.1456910390
 C          1.2174690496        2.6189060599       -0.9670408210
 C          0.8672941196        4.0547919098       -1.2154720312
 C          2.2903331296        3.5994657898       -1.3299151213
 H          2.7368847495        3.5372773397       -2.3110428513
 H          2.9836580596        3.8814855600       -0.5507780414
 H          0.3379218795        4.3077087497       -2.1224261412
 H          0.5982241397        4.6600320900       -0.3628371112
 H          0.9354473196        1.8852672897       -1.7152778708
