  62
        -98.94031047
 C         -2.5949797698       -1.1676260497        0.3029194489
 C         -2.5772594796       -0.3541366987       -0.8574104504
 C         -3.4859601594        0.8013993714       -0.8378575795
 C         -4.2660668995        1.0290394606        0.2333811607
 C         -5.2633720293        2.1455507206        0.3844627616
 C         -4.6520361291        3.4682460701        0.8666936128
 C         -3.8004466889        4.2062780309       -0.1671437265
 H         -4.3691074188        4.3186986118       -1.0906347464
 H         -3.6162459888        5.2079388005        0.2262794344
 C         -2.4512765190        3.5383519909       -0.4689517170
 H         -2.2141698592        2.8232493002        0.3227333724
 H         -1.6615325189        4.2930239808       -0.4630246062
 C         -2.3853557690        2.8230044421       -1.8186136376
 H         -1.4032205191        2.3516821920       -1.9095874779
 H         -2.4856781788        3.5531709828       -2.6245405670
 C         -3.4507751292        1.7355359824       -2.0094625086
 H         -4.4291911891        2.1890105827       -2.1660894283
 H         -3.1877482392        1.1507157232       -2.8940933991
 H         -5.4776166190        4.1211151300        1.1592541833
 H         -4.0530324192        3.2713088092        1.7591484227
 H         -5.7798562692        2.3056022815       -0.5623230683
 H         -5.9921737994        1.8128354501        1.1268364912
 O         -4.2436195997        0.2311089396        1.3351181700
 C         -3.3883144998       -0.8570931906        1.4096823691
 O         -3.4232552900       -1.4589809515        2.5025676186
 O         -1.8508382795       -0.5680113579       -1.8603707805
 C         -1.6844463200       -2.3755150200        0.4393142179
 C         -0.2906078999       -2.0288039698       -0.0273663317
 C          0.4123697201       -2.7597325891       -0.9750230823
 C          1.6960169201       -2.3876736389       -1.3358602019
 C          2.3036873403       -1.2843464195       -0.7671764008
 C          1.6110308403       -0.5462914103        0.1840657198
 C          0.3318752602       -0.9293470504        0.5531341593
 H         -0.2063031298       -0.3546544510        1.2990337098
 N          2.2177040304        0.5892968691        0.7550349808
 S          3.7102787003        0.3740958582        1.4970649607
 O          3.8439682701       -0.9609936922        2.0339966196
 O          3.8219891604        1.4609765474        2.4459007817
 C          4.8863700105        0.6248173392        0.1845705110
 C          5.8205492804       -0.3527214807       -0.0970181697
 C          6.7330258405       -0.1329633199       -1.1172415295
 C          6.6951646807        1.0538002607       -1.8330886984
 C          5.7518714108        2.0264381206       -1.5359232577
 C          4.8378465007        1.8139166798       -0.5162794679
 H          4.0910764608        2.5441685797       -0.2522091073
 H          5.7251883710        2.9477042611       -2.0952370968
 H          7.4049625008        1.2220439213       -2.6275572882
 H          7.4670777004       -0.8876239998       -1.3497471501
 H          5.8067714102       -1.2621661412        0.4820826495
 H          1.6021605905        1.1118869987        1.3615727212
 H          3.2986672403       -0.9859293194       -1.0544323205
 H          2.2279768801       -2.9623438884       -2.0786471323
 H         -0.0501706400       -3.6101547686       -1.4477433631
 H         -1.6296206001       -2.5679919110        1.5245422377
 C         -2.2357168701       -3.6445316793       -0.1947156633
 C         -3.7090098602       -3.8336091889       -0.3964318136
 C         -2.8070471300       -3.6617701080       -1.5795701833
 H         -2.6136581301       -4.5225683375       -2.2028899741
 H         -2.8330037799       -2.7278691976       -2.1177242225
 H         -4.1297437103       -4.8091677790       -0.2036620045
 H         -4.3620522001       -3.0167313491       -0.1246163929
 H         -1.6811179203       -4.5246330297        0.1162795860
