  62
        -98.94398196
 C         -1.7002163245       -1.3075177072        0.3145873232
 C         -1.3655509307       -0.2616161685       -0.5734006705
 C         -1.9119886625        1.0694263011       -0.2644809576
 C         -2.6608007760        1.2339104125        0.8415745285
 C         -3.2814061700        2.4757877922        1.4469497139
 C         -3.4252388568        3.7570112622        0.6294836560
 C         -4.4015565035        3.6640390644       -0.5422640432
 H         -5.4137916658        3.5591000583       -0.1439436421
 H         -4.3572973441        4.6040438286       -1.0965678286
 C         -4.1609465909        2.5059487936       -1.5070708439
 H         -4.9151158589        2.5668075101       -2.2962831802
 H         -4.3143131121        1.5581719059       -0.9870246340
 C         -2.7875568802        2.4886010178       -2.1753812017
 H         -2.5989619879        3.4521885778       -2.6521529683
 H         -2.8144299966        1.7263103784       -2.9582296500
 C         -1.6016765650        2.1580183523       -1.2508137835
 H         -0.7826954071        1.7839546057       -1.8718919837
 H         -1.2345963608        3.0428173247       -0.7349606767
 H         -2.4507633232        4.0948282861        0.2888950608
 H         -3.8026488058        4.5207482237        1.3152081574
 H         -2.6788931701        2.6982756968        2.3353828499
 H         -4.2676471664        2.1695809664        1.8109216950
 O         -2.9446311760        0.1948010135        1.6817169780
 C         -2.4703595059       -1.0838212278        1.4518399616
 O         -2.8005068225       -1.9216545289        2.3177171908
 O         -0.6265514067       -0.4278472094       -1.5804001748
 C         -1.1375878285       -2.6983429671        0.0853163880
 C          0.3680205902       -2.6235589050       -0.0050981170
 C          1.1178050375       -3.3427519657       -0.9275238363
 C          2.4946650120       -3.2048770486       -0.9726574920
 C          3.1485916215       -2.3343150569       -0.1199089721
 C          2.4077852934       -1.6197638990        0.8142905569
 C          1.0357634957       -1.7926479628        0.8856231276
 H          0.4757521931       -1.2323032169        1.6204960430
 N          3.0179730368       -0.7035021696        1.6969777091
 S          2.5699869996        0.9068425591        1.5606078189
 O          3.3853139074        1.6031559133        2.5334471212
 O          1.1439543294        1.0412467615        1.7101095746
 C          3.0908992567        1.3727836315       -0.0812133832
 C          2.3313899479        0.9890918421       -1.1681598592
 C          2.7870808360        1.3003732585       -2.4405351422
 C          3.9837614290        1.9802661837       -2.6045788110
 C          4.7351571545        2.3566427447       -1.5012308547
 C          4.2890494687        2.0462289296       -0.2271157924
 H          4.8365551327        2.3199249056        0.6604148902
 H          5.6650939383        2.8868041941       -1.6295271652
 H          4.3310646220        2.2181148338       -3.5976602395
 H          2.1967788765        1.0024154089       -3.2923330673
 H          1.4007165687        0.4629612252       -1.0211793443
 H          4.0275827626       -0.7614396703        1.7068753590
 H          4.2191141018       -2.2053373057       -0.1740531507
 H          3.0637636058       -3.7686832846       -1.6958590394
 H          0.6223988037       -4.0063242433       -1.6173218292
 H         -1.4029054869       -3.2864113190        0.9765745679
 C         -1.7812111847       -3.3329543876       -1.1307720173
 C         -1.9707523567       -4.8177976404       -1.2012532063
 C         -3.1528520181       -3.9201918722       -0.9961622179
 H         -3.8524375536       -3.7902548601       -1.8081506971
 H         -3.6099179882       -3.8863196732       -0.0175037938
 H         -1.8628762421       -5.3072417559       -2.1574644185
 H         -1.6324004290       -5.4061764403       -0.3617357603
 H         -1.5527460424       -2.7993491094       -2.0462147355
