  62
        -98.94197443
 C          2.8474314615        0.0500811213       -0.3456916288
 C          2.2793434009        0.4867222620        0.8770765107
 C          1.9908708051        1.9243350337        0.9609541750
 C          2.3765954660        2.7434599293       -0.0348471173
 C          2.1818094234        4.2346778101       -0.0814973931
 C          0.8158685689        4.6617345036       -0.6356397632
 C         -0.3682908519        4.4061447241        0.2971618285
 H         -0.1620708089        4.8475720450        1.2725491317
 H         -1.2281516288        4.9302102115       -0.1241197407
 C         -0.7301556179        2.9236806095        0.4710862966
 H         -0.2685049799        2.3380870603       -0.3282598865
 H         -1.8107468359        2.7974702190        0.3734553754
 C         -0.3254021411        2.3254484106        1.8193096628
 H         -0.8678053537        2.8332574322        2.6204115374
 H         -0.6245349815        1.2726105163        1.8347176835
 C          1.1783902884        2.4094594597        2.1228300255
 H          1.4523089355        3.4321022888        2.3829976443
 H          1.3924959077        1.7601136069        2.9750979730
 H          0.6496620011        4.1495102352       -1.5861984543
 H          0.8658580264        5.7335842675       -0.8393878995
 H          2.3206078875        4.6542875313        0.9148422866
 H          2.9593405938        4.6295576313       -0.7388520788
 O          3.0211311607        2.2946061152       -1.1454116889
 C          3.2126369340        0.9372074551       -1.3564947096
 O          3.7129456498        0.6536744933       -2.4641966438
 H          0.5495456656       -0.5756598400       -1.0884085572
 C          0.5446893980       -1.5736267201       -0.6651607442
 C          1.7530407038       -2.1812824613       -0.3497393884
 C          1.7228147266       -3.4634287037        0.1843898946
 C          0.5157472959       -4.1007596027        0.4144591136
 C         -0.6847656358       -3.4789861727        0.1247713017
 C         -0.6664642667       -2.1994799136       -0.4148052765
 N         -1.8825467479       -1.5434851217       -0.7171920578
 S         -2.9484763851       -1.3539695524        0.5855080658
 O         -2.3084937489       -0.6455623444        1.6706300608
 O         -3.4979375560       -2.6463857107        0.9094660351
 C         -4.2082652718       -0.3398040313       -0.1613385644
 C         -4.3532112234        0.9750187423        0.2354400152
 C         -5.3293511219        1.7534126687       -0.3672780607
 C         -6.1379382485        1.2050595985       -1.3511314682
 C         -5.9812145153       -0.1181729168       -1.7373546111
 C         -5.0077951317       -0.9015850316       -1.1385612149
 H         -4.8547282688       -1.9351669658       -1.4007266650
 H         -6.6140653600       -0.5405306648       -2.5010490326
 H         -6.8971045058        1.8124292257       -1.8180644102
 H         -5.4554985238        2.7810425235       -0.0663949153
 H         -3.7048022203        1.3532707647        1.0101070794
 H         -1.7058080028       -0.6276177479       -1.1117333902
 H         -1.6297725274       -3.9541569145        0.3303284173
 H          0.5089655582       -5.0945977219        0.8362458036
 H          2.6464159608       -3.9603484137        0.4333631538
 C          3.0430642395       -1.4327803650       -0.5953520280
 H          3.3078712050       -1.5349610131       -1.6585565500
 C          4.1940247693       -1.9544942643        0.2426762146
 C          5.0838178175       -3.0430670350       -0.2760502901
 C          5.5952430429       -1.6379183669       -0.1831880591
 H          6.3243718354       -1.4002519265        0.5767501780
 H          5.7161946592       -1.0734469034       -1.0965253732
 H          5.4666046433       -3.7724163896        0.4220552171
 H          4.8721616928       -3.4384023275       -1.2581112888
 H          3.9746702624       -1.9311086674        1.3043675311
 O          2.0152655062       -0.2811302694        1.8382357887
