  62
        -98.93820080
 C         -1.6822206291       -1.1324569466       -0.6645834779
 C         -1.6746688579        0.0739529399        0.0754640899
 C         -2.9493567527        0.4570056497        0.7106248992
 C         -4.0253385821       -0.3353198245        0.5715910951
 C         -5.4052759686       -0.1597800462        1.1548235965
 C         -6.0118122119        1.2499562547        1.1304297457
 C         -5.6100225069        2.1099256956       -0.0768070310
 H         -5.1116009624        1.4929074212       -0.8262056454
 H         -6.5118992964        2.5175941404       -0.5371183921
 C         -4.7043684252        3.2845995037        0.3013353460
 H         -5.0870223270        3.7411784349        1.2167758398
 H         -4.7596050958        4.0387228618       -0.4873914158
 C         -3.2281903333        2.9391163340        0.4947619124
 H         -2.7204461490        3.8288609423        0.8751230797
 H         -2.7746862848        2.6984107148       -0.4702985917
 C         -2.9438133739        1.7659417853        1.4469163788
 H         -1.9300364555        1.8864368041        1.8403230279
 H         -3.6382441163        1.7598535413        2.2837571084
 H         -5.7454709280        1.7768367659        2.0457084170
 H         -7.0960082785        1.1260191554        1.1445343943
 H         -5.3865634731       -0.5233577984        2.1865142357
 H         -6.0418157338       -0.8417900995        0.5858964206
 O         -3.9836583972       -1.4966526666       -0.1416727146
 C         -2.8249469205       -1.9266378880       -0.7626174911
 O         -2.9390853432       -3.0134225960       -1.3651821555
 O         -0.6620895069        0.8081314172        0.2062379117
 C         -0.4210165261       -1.6466610120       -1.3412649620
 C          0.5464280858       -2.0828989018       -0.2669531852
 C          0.2471228563       -3.2179384401        0.4834015287
 C          1.0926171555       -3.6389669616        1.4910004997
 C          2.2435508581       -2.9263260763        1.7841949315
 C          2.5465953635       -1.7886251869        1.0484728805
 C          1.7071694688       -1.3837732818        0.0187518689
 H          1.9620543994       -0.5082654640       -0.5504648085
 N          3.7113542834       -1.0422552459        1.3049476366
 S          3.5391988228        0.6069152043        1.6033598346
 O          4.7736383812        0.9730072344        2.2691474993
 O          2.3260841708        0.8827591007        2.3359721152
 C          3.5182938847        1.3613522330       -0.0076019397
 C          2.3782478189        1.9916520360       -0.4656908801
 C          2.4001540947        2.5680201914       -1.7268785290
 C          3.5496687885        2.5050546410       -2.4994408735
 C          4.6861814988        1.8700311148       -2.0208156943
 C          4.6738239637        1.2931197958       -0.7614126588
 H          5.5353097537        0.7968513237       -0.3466866257
 H          5.5775793214        1.8222407132       -2.6253228136
 H          3.5575122756        2.9525536536       -3.4810858006
 H          1.5136182199        3.0566156554       -2.0997755518
 H          1.4906165189        1.9909305079        0.1481647153
 H          4.3124434996       -1.4527475483        2.0063877981
 H          2.8998313402       -3.2477448213        2.5793557041
 H          0.8517450069       -4.5241190090        2.0607018268
 H         -0.6612715985       -3.7626260521        0.2636076811
 H         -0.7259064871       -2.5417272237       -1.9013270094
 C          0.1532573628       -0.6326268405       -2.3074287581
 C          1.1734614494       -1.0663149768       -3.3155529980
 C         -0.2123234096       -0.7061835168       -3.7578834061
 H         -0.3589092029        0.2163710563       -4.2990001463
 H         -0.8741090240       -1.5023421449       -4.0670890290
 H          1.9818286657       -0.3907898782       -3.5509944424
 H          1.4526627127       -2.1089905826       -3.3241563593
 H          0.2606791860        0.3532637313       -1.8733605584
