  62
        -98.94336504
 C          1.2250688180        0.6487090767        0.5911712444
 C          1.9427282506        0.4878009356       -0.6195908597
 C          2.9445634001       -0.5876209899       -0.6261290716
 C          3.0563501645       -1.4108580012        0.4307192434
 C          4.0135235325       -2.5644971077        0.5603408762
 C          5.4164904033       -2.1603111929        1.0344033792
 C          6.2666584166       -1.4227556946       -0.0010214061
 H          7.2875521898       -1.3950560448        0.3849994655
 H          6.2845035972       -1.9961514209       -0.9283417510
 C          5.8093761920        0.0137459350       -0.2905605866
 H          5.1458649193        0.3522826600        0.5085454138
 H          6.6756575329        0.6789238388       -0.2902047189
 C          5.0998003644        0.1945225511       -1.6325796662
 H          5.7962239471       -0.0174972530       -2.4467178983
 H          4.7897302810        1.2390606887       -1.7182178267
 C          3.8557883095       -0.6858980691       -1.8121179175
 H          3.3025948394       -0.3296139724       -2.6847845461
 H          4.1479286388       -1.7218383429       -1.9837816413
 H          5.3175747214       -1.5440731416        1.9311364955
 H          5.9401500213       -3.0764212321        1.3172381483
 H          3.5814450267       -3.2448585422        1.2977017175
 H          4.0855448685       -3.0893893474       -0.3928630882
 O          2.2653701457       -1.2956651966        1.5311393072
 C          1.3440397995       -0.2666285696        1.6395766242
 O          0.6875129580       -0.2800888753        2.7013072437
 H         -1.0141383606       -0.3990076353       -0.2178831604
 C         -1.3290996972        0.4876534448       -0.7472411162
 C         -0.7740373022        1.7151846680       -0.4099362878
 C         -1.1556675010        2.8358885239       -1.1348939441
 C         -2.0658799999        2.7176997768       -2.1716870478
 C         -2.6326548277        1.4968262542       -2.4890627681
 C         -2.2546156729        0.3687292531       -1.7693211182
 N         -2.8026338552       -0.8932574115       -2.0459945420
 S         -3.0696097197       -1.9581588344       -0.7862230087
 O         -1.8338490410       -2.5786852431       -0.3766649790
 O         -4.0859809979       -2.8577948774       -1.2903299462
 C         -3.7492865961       -0.9569370923        0.5258368109
 C         -3.0369273580       -0.7297259042        1.6852696087
 C         -3.5842643577        0.0945146035        2.6565282325
 C         -4.8272841034        0.6728734983        2.4544096622
 C         -5.5358850390        0.4269240172        1.2878431101
 C         -4.9928447577       -0.3929362589        0.3129732648
 H         -5.5176017341       -0.6162144449       -0.6016215905
 H         -6.5049612602        0.8736599202        1.1352583412
 H         -5.2450269084        1.3169130288        3.2119657156
 H         -3.0258446908        0.2817162253        3.5601512312
 H         -2.0679195011       -1.1862012160        1.8185344658
 H         -3.5555329649       -0.8979557035       -2.7178893046
 H         -3.3477377639        1.4105561090       -3.2925510609
 H         -2.3451394171        3.5938006703       -2.7369556491
 H         -0.7260715738        3.7970105549       -0.9056659422
 C          0.1799927585        1.7373998349        0.7595825857
 H         -0.3974525372        1.4316843893        1.6486917488
 C          0.7437278916        3.1169119100        1.0675202638
 C          2.1226603858        3.2834142553        1.6318808764
 C          1.8211912793        3.7501380448        0.2411463025
 H          1.7684570441        4.8140467248        0.0607043738
 H          2.2084318246        3.1826176790       -0.5894091616
 H          2.2756343347        4.0215305590        2.4050822924
 H          2.7239874145        2.3934859625        1.7528771655
 H         -0.0157308341        3.7828801002        1.4653356750
 O          1.7701105366        1.1954909139       -1.6448467437
