  62
        -98.94149116
 C         -2.0302151911       -1.5290374365        0.1728922304
 C         -2.5879593308       -0.5939901698        1.0842710365
 C         -3.3864145912        0.4924123761        0.5035801211
 C         -3.5780287238        0.5249548745       -0.8272754036
 C         -4.3175056560        1.6047490638       -1.5622515836
 C         -3.3614339682        2.7195089855       -2.0108947085
 C         -2.4229980752        3.2055339842       -0.9060964378
 H         -1.7573363581        2.3855195366       -0.6258159653
 H         -1.8026046642        3.9970983276       -1.3330387915
 C         -3.1371220803        3.7318020097        0.3475388760
 H         -2.6657559605        4.6685910080        0.6526509430
 H         -4.1775959949        3.9573905536        0.1110880017
 C         -3.0864734029        2.7910099910        1.5534332379
 H         -3.4324655558        3.3448353595        2.4299270422
 H         -2.0542692065        2.4865197174        1.7441151602
 C         -3.9432862058        1.5233981645        1.4440194470
 H         -3.9653744660        1.0499008510        2.4297230366
 H         -4.9651908017        1.7893278209        1.1669024740
 H         -3.9545866074        3.5562581509       -2.3841433497
 H         -2.7518956669        2.3419888337       -2.8355526935
 H         -5.0914230286        2.0131080815       -0.9153361260
 H         -4.7880582403        1.1642092782       -2.4428384793
 O         -3.0605411615       -0.4051845615       -1.6672179342
 C         -2.2478985345       -1.4351538662       -1.2019999298
 O         -1.8057065518       -2.1631209189       -2.1105070193
 O         -2.4220792932       -0.6683217917        2.3304745170
 C         -1.1664907206       -2.6222682321        0.7776078877
 C          0.2779961724       -2.1921440427        0.8290870788
 C          1.0196539814       -2.3022576396        1.9990438204
 C          2.3434953041       -1.8985571143        2.0344352048
 C          2.9508563953       -1.3722630616        0.9088221421
 C          2.2131078182       -1.2445258110       -0.2618672473
 C          0.8875727057       -1.6539270041       -0.2960774853
 H          0.3218595655       -1.5638141965       -1.2123230616
 N          2.8122649847       -0.6999394817       -1.4088323096
 S          3.7873467109        0.6475392554       -1.2391725574
 O          3.7272694095        1.3214871268       -2.5165740146
 O          5.0996040465        0.2374712913       -0.8046136841
 C          3.0241128186        1.6465130487        0.0275209095
 C          1.7536474103        2.1369232808       -0.2011661808
 C          1.1483189082        2.9104026162        0.7757205376
 C          1.8167570141        3.1733980335        1.9616987323
 C          3.0923126680        2.6754172022        2.1756746530
 C          3.7045777778        1.9051803530        1.2000148590
 H          4.6969237002        1.5029029771        1.3227860277
 H          3.6104408706        2.8839526999        3.0977115218
 H          1.3382539860        3.7720362425        2.7205816324
 H          0.1577860233        3.3031496360        0.6098291235
 H          1.2595109272        1.9176703006       -1.1349570303
 H          2.1858523455       -0.6115201900       -2.1950978383
 H          3.9840266328       -1.0656455628        0.9145687623
 H          2.9093796750       -1.9939819634        2.9482020368
 H          0.5485104200       -2.6965665922        2.8871345219
 H         -1.5183791591       -2.7123698336        1.8174325270
 C         -1.3555968496       -3.9806879352        0.1176004522
 C         -0.3216819658       -4.6367638662       -0.7425101854
 C         -0.6015386580       -5.1732140514        0.6273497771
 H         -1.1220918102       -6.1141295668        0.7207244195
 H          0.1433889176       -5.0008804937        1.3895126188
 H         -0.6664303348       -5.1904382987       -1.6025210616
 H          0.6110894318       -4.1208014962       -0.9082198488
 H         -2.3888689699       -4.1465680650       -0.1705266857
