  62
        -98.94376780
 C         -1.9154700765       -1.2568553557       -0.3147828933
 C         -1.8519456752        0.0263663612        0.2800821464
 C         -3.1039988671        0.5131093935        0.8730899167
 C         -4.2025187194       -0.2631677317        0.8516078354
 C         -5.5453806852        0.0881261736        1.4325102464
 C         -6.4235548817        0.9383751539        0.5040263340
 C         -5.9842991135        2.3945756083        0.3443693490
 H         -6.8026567217        2.9229826699       -0.1488798885
 H         -5.8549831630        2.8437137103        1.3296285026
 C         -4.7049446804        2.5833934433       -0.4827314497
 H         -4.5052563735        1.6751044258       -1.0559268754
 H         -4.8539031751        3.3903693733       -1.2036629193
 C         -3.4642321372        2.9324427314        0.3394154484
 H         -3.5997068577        3.9079697343        0.8116275638
 H         -2.6124255483        3.0020063080       -0.3415070879
 C         -3.1211847376        1.9059030768        1.4268598297
 H         -2.1199670781        2.1250804945        1.8063193625
 H         -3.8297332742        1.9805452134        2.2514400390
 H         -6.4605644097        0.4589685541       -0.4770094675
 H         -7.4355182117        0.9296832211        0.9156437597
 H         -6.0593916647       -0.8568044108        1.6219024025
 H         -5.4103186720        0.6056915534        2.3827922683
 O         -4.2120375776       -1.5054834086        0.2976447295
 C         -3.0801912191       -2.0230458188       -0.3132936386
 O         -3.2331597144       -3.1615771613       -0.8017924612
 H          1.9676889005       -1.2711788940       -1.4479585340
 C          1.7717720369       -1.5681619642       -0.4290703520
 C          0.4800176150       -1.8850251346       -0.0353609956
 C          0.2689653567       -2.2774871520        1.2834999551
 C          1.3133219149       -2.3229074571        2.1872638638
 C          2.5986277452       -1.9925493871        1.7939832733
 C          2.8244170270       -1.6176023043        0.4775063852
 N          4.1380912174       -1.2900316417        0.0754683491
 S          4.8005458994        0.1227626579        0.6870247087
 O          6.1521007574        0.1742161970        0.1774887593
 O          4.6536767180        0.1237171698        2.1193549282
 C          3.8368466299        1.4324311153       -0.0470001417
 C          2.5305553742        1.6079743481        0.3636960296
 C          1.7546489925        2.5698539800       -0.2634801401
 C          2.2983622911        3.3418731798       -1.2783961635
 C          3.6155512302        3.1598459274       -1.6737417748
 C          4.3915432653        2.1897833581       -1.0606691869
 H          5.4161147745        2.0064892453       -1.3419154154
 H          4.0353346940        3.7643855376       -2.4618216320
 H          1.6898987964        4.0884632405       -1.7647012579
 H          0.7239587560        2.6774483507        0.0335822925
 H          2.1225289349        0.9963761290        1.1519412128
 H          4.2624230418       -1.3002725906       -0.9278501126
 H          3.4215040399       -2.0031393554        2.4895633616
 H          1.1264849867       -2.6200683091        3.2084181255
 H         -0.7332875308       -2.5379433914        1.5966131770
 C         -0.6867086183       -1.8338990167       -0.9919801709
 H         -0.9468757795       -2.8663994649       -1.2686636916
 C         -0.3875610532       -1.0496079748       -2.2546768925
 C          0.2172879646       -1.7254471601       -3.4477722352
 C         -1.2199941898       -1.3021436568       -3.4742544007
 H         -1.5012350717       -0.4622356668       -4.0915427598
 H         -1.9814018547       -2.0656332786       -3.4032680033
 H          0.9216407448       -1.1737900373       -4.0525781447
 H          0.4306140304       -2.7812150864       -3.3723971152
 H         -0.1026311168       -0.0241891493       -2.0464515810
 O         -0.8100268857        0.7276954431        0.3171119453
