  62
        -98.94618028
 C          1.1296503509        1.2908663128       -0.0522234542
 C          1.6284788592        0.4273338889        0.9568744322
 C          2.4323499998       -0.7124847302        0.5042442391
 C          2.6270984885       -0.9053816240       -0.8127863816
 C          3.3739438270       -2.0522702382       -1.4381862255
 C          4.8937095569       -1.8496724660       -1.5070488869
 C          5.6235508959       -1.9547678953       -0.1672995218
 H          5.3471594162       -2.8892808764        0.3219591580
 H          6.6915657276       -2.0055504479       -0.3881354917
 C          5.3703604513       -0.7771666569        0.7842018277
 H          4.9558224226        0.0621365118        0.2208943461
 H          6.3195501728       -0.4407845994        1.2072678712
 C          4.4402880467       -1.0964896849        1.9544227226
 H          4.3069576700       -0.1853968028        2.5430325213
 H          4.9052767359       -1.8477454443        2.5964476564
 C          3.0509698323       -1.6008751985        1.5413159940
 H          3.1142452066       -2.6255567051        1.1752767661
 H          2.4069812386       -1.5834830489        2.4235295544
 H          5.2935992044       -2.6145197999       -2.1768726851
 H          5.0954114190       -0.8752413600       -1.9581336207
 H          3.1511965686       -2.9715617300       -0.8950410761
 H          2.9895044072       -2.1516694321       -2.4560893448
 O          2.1299092821       -0.0618561685       -1.7531804683
 C          1.3780929841        1.0555309688       -1.4065924935
 O          1.0129285752        1.7293522395       -2.3892751259
 O          1.4041657623        0.5990495277        2.1852082448
 C          0.2745178629        2.4526046188        0.4142671261
 C         -1.2033948323        2.1286861717        0.3807252129
 C         -2.0731945429        2.7341350557        1.2827556454
 C         -3.4251096042        2.4464170529        1.2618210802
 C         -3.9347034663        1.5242018673        0.3642906289
 C         -3.0749677955        0.9099242319       -0.5368667777
 C         -1.7247415021        1.2316589970       -0.5377112386
 H         -1.0845990313        0.7607402296       -1.2666842425
 N         -3.5399912882       -0.0628310083       -1.4422429507
 S         -2.7252952426       -1.5285091393       -1.4748525624
 O         -1.4617912410       -1.3957987625       -2.1529209959
 O         -3.6702120253       -2.4531172446       -2.0644406023
 C         -2.4801656577       -1.9125915283        0.2483763123
 C         -1.2840286209       -1.5847422063        0.8523240053
 C         -1.1469774327       -1.7727344950        2.2183943723
 C         -2.2013570436       -2.2949469760        2.9510417748
 C         -3.3923523672       -2.6366563872        2.3271747936
 C         -3.5401308444       -2.4343775498        0.9649030695
 H         -4.4487326636       -2.6839980601        0.4411662881
 H         -4.2070086056       -3.0494072813        2.9000515763
 H         -2.0909240186       -2.4357434787        4.0145853542
 H         -0.2235804349       -1.4832877515        2.6954161188
 H         -0.4786517650       -1.1846411506        0.2560210962
 H         -4.5368066838       -0.2229920336       -1.3949565107
 H         -4.9858747034        1.2799918059        0.3603055790
 H         -4.0877234682        2.9281966343        1.9639881572
 H         -1.6810371813        3.4296615178        2.0084926777
 H          0.5495148806        2.6094482453        1.4673285185
 C          0.5331328091        3.7415996128       -0.3437589358
 C          0.4202404836        5.0605541675        0.3575498957
 C          1.7664084204        4.5374122936       -0.0422149233
 H          2.2880188736        5.0056707600       -0.8631722400
 H          2.4202563926        4.1665184217        0.7338955314
 H          0.0106801084        5.8969931368       -0.1874162731
 H          0.1755798086        5.0567868410        1.4085189607
 H          0.2196283601        3.6922895885       -1.3790555267
