  62
        -98.93885025
 C         -1.1877519516       -1.2572484746       -0.8645626962
 C         -2.5400047367       -1.4143147343       -0.4439656540
 C         -3.4085747593       -0.2373205212       -0.5225287210
 C         -2.9126355107        0.9224933636       -0.9864187915
 C         -3.6669255804        2.2143776032       -1.1455327315
 C         -3.7478768335        3.0457220843        0.1419005900
 C         -4.6952474598        2.4967433349        1.2094566855
 H         -4.8288104101        3.2837769525        1.9543773712
 H         -5.6707971055        2.3009825863        0.7628906739
 C         -4.1867850531        1.2322232521        1.9163550317
 H         -3.1116493352        1.1263768599        1.7480079518
 H         -4.3277112757        1.3370550988        2.9948083576
 C         -4.8880096058       -0.0587366709        1.4921166015
 H         -5.9392967426       -0.0169970316        1.7861190741
 H         -4.4209616473       -0.8908087401        2.0253317612
 C         -4.8122380471       -0.3571268043       -0.0107600219
 H         -5.1390868653       -1.3872447549       -0.1722340154
 H         -5.4745587293        0.3114029578       -0.5606359368
 H         -2.7431681130        3.1390219637        0.5623664137
 H         -4.0876122481        4.0465136438       -0.1354185567
 H         -3.1327613369        2.7968533326       -1.8993436555
 H         -4.6734089721        2.0094568424       -1.5119268590
 O         -1.6269134326        1.0389714020       -1.3963952193
 C         -0.7258290849       -0.0184854120       -1.3189372677
 O          0.4126791243        0.3081956270       -1.7023780147
 H          1.3319202804       -0.4796987831        0.0678001360
 C          1.3661924443       -1.3165815677        0.7423481420
 C          0.5852890143       -2.4349380401        0.4980795137
 C          0.6637850058       -3.5063346599        1.3828643647
 C          1.4902235783       -3.4469566959        2.4902978520
 C          2.2368044992       -2.3114590732        2.7518765247
 C          2.1670326867       -1.2380548674        1.8722505635
 N          2.9110629925       -0.0702305867        2.0885030470
 S          2.3078485209        1.4148681358        1.6041852238
 O          3.0429892865        2.3728036104        2.4087995292
 O          0.8692394097        1.4788007842        1.7371971844
 C          2.8182724827        1.6102895275       -0.0887669507
 C          3.8518998031        0.8501498537       -0.5954685117
 C          4.2524189764        1.0580358993       -1.9054557307
 C          3.6235758387        2.0213068396       -2.6779114305
 C          2.5914291466        2.7803742096       -2.1509459996
 C          2.1823932261        2.5734956249       -0.8441697355
 H          1.3680822114        3.1273365461       -0.4034616909
 H          2.0942300935        3.5226256970       -2.7550039769
 H          3.9328890925        2.1761236413       -3.6997776154
 H          5.0486550960        0.4616056986       -2.3214437395
 H          4.3135962730        0.1002738185        0.0254555922
 H          3.3980693859       -0.0156340035        2.9706976740
 H          2.8636160335       -2.2535100888        3.6286067791
 H          1.5408206424       -4.2853964492        3.1683334863
 H          0.0582821515       -4.3831973906        1.2050854940
 C         -0.3334215106       -2.5049476924       -0.7018685364
 H         -1.0836492469       -3.2789325539       -0.4733087694
 C          0.4407209433       -3.0422273920       -1.9033578362
 C          0.2103075017       -2.5868886118       -3.3103614785
 C          1.5192017573       -2.3053410080       -2.6353739046
 H          2.3888658465       -2.8652293089       -2.9467345194
 H          1.7190795375       -1.2849259185       -2.3546194719
 H          0.1686461833       -3.3289093199       -4.0941327659
 H         -0.4577233531       -1.7512817719       -3.4603786214
 H          0.6200676062       -4.1074494084       -1.7825553429
 O         -3.0093124409       -2.5062921708       -0.0207811567
