  62
        -98.94747381
 C         -0.7453472515       -1.2777740792        0.0842296796
 C         -1.4332785010       -0.5135113784        1.0555224193
 C         -2.3856364298        0.4757625926        0.5345089689
 C         -2.4910669291        0.6494381926       -0.7954465111
 C         -3.4844495479        1.5531861136       -1.4649905915
 C         -4.7796997386        0.7955729550       -1.7919357519
 C         -5.3449009799        0.0007040957       -0.6144869221
 H         -6.2743080203       -0.4634367233       -0.9517164924
 H         -4.6546836008       -0.8087149350       -0.3655320418
 C         -5.6191309894        0.8364210561        0.6438126978
 H         -6.5970965198        0.5580730372        1.0421940775
 H         -5.6653963682        1.8943531362        0.3835154477
 C         -4.6062167500        0.6359113651        1.7729907581
 H         -5.0095768698        1.0986484156        2.6777656180
 H         -4.4910935912       -0.4318748350        1.9763932783
 C         -3.2139586493        1.2344193036        1.5323782486
 H         -3.3127840280        2.2807613837        1.2391686185
 H         -2.6635738697        1.1883344930        2.4766476088
 H         -5.5239113877        1.5158122658       -2.1365714322
 H         -4.5773935591        0.0985346848       -2.6083045518
 H         -3.0467667072        1.9205139231       -2.3939835614
 H         -3.7041072572        2.3950675939       -0.8123892317
 O         -1.7402233495       -0.0359379783       -1.6942630708
 C         -0.8766927608       -1.0398325292       -1.2840483504
 O         -0.2946543811       -1.6293214999       -2.2136012902
 O         -1.2706677316       -0.6624529985        2.2976227994
 C          0.1784450971       -2.3927426702        0.5378592100
 C          1.5593634875       -2.2105861117       -0.0394926395
 C          2.3005240966       -3.2466151226       -0.5926687492
 C          3.5603371470       -3.0043451640       -1.1120294087
 C          4.1075810084       -1.7354390646       -1.0846833386
 C          3.3768897693       -0.6926003238       -0.5249954290
 C          2.1184815889       -0.9395780524       -0.0027333194
 H          1.5552026496       -0.1303522217        0.4395740403
 N          3.8821801108        0.6132741157       -0.5178872589
 S          3.4268975816        1.7192473963        0.6395207209
 O          4.3866943128        2.7946372852        0.4997756211
 O          3.3464780305        1.1226698864        1.9530364009
 C          1.8297575324        2.3141536480        0.1264392003
 C          1.5549193730        2.4526344682       -1.2191785598
 C          0.3343543537        2.9862490495       -1.5998261503
 C         -0.5790646262        3.3824513205       -0.6356044107
 C         -0.2896283768        3.2333563303        0.7112986495
 C          0.9248468325        2.6916899190        1.0984053899
 H          1.1834763819        2.5447273788        2.1352714700
 H         -1.0017203967        3.5344657612        1.4624641792
 H         -1.5212444156        3.8116066815       -0.9362311910
 H          0.1009212242        3.0923586297       -2.6471105204
 H          2.2865902429        2.1364518173       -1.9442188696
 H          4.8362876410        0.7245117646       -0.8252713786
 H          5.0867666487       -1.5468401657       -1.4973645683
 H          4.1242128363       -3.8163180547       -1.5456239285
 H          1.8903539155       -4.2425197922       -0.6253735292
 H          0.2495693868       -2.2914738102        1.6317435100
 C         -0.4400096242       -3.7375098296        0.2121564599
 C         -0.1697722258       -4.9294734598        1.0795815401
 C         -1.5164717551       -4.2731693683        1.1061879396
 H         -2.3526547655       -4.7881769574        0.6573984693
 H         -1.7811949448       -3.6807069580        1.9699978794
 H         -0.0836373467       -5.8990925599        0.6126726602
 H          0.4774789040       -4.7906621404        1.9324230103
 H         -0.5525516640       -3.8935299595       -0.8552702701
