  62
        -98.93785303
 C         -1.7921633953       -1.6142011255        0.1228692003
 C         -1.6971533197       -0.2689016346       -0.2957424359
 C         -2.9354207916        0.5315927759       -0.2311520017
 C         -4.0718287288       -0.0557541850        0.1852092294
 C         -5.4452702636        0.5468740215        0.3412880711
 C         -5.9305389660        1.4645812920       -0.7913889570
 C         -5.9958579047        2.9401445483       -0.3929636851
 H         -6.7198863572        3.4439740890       -1.0372464660
 H         -6.3699540898        3.0071022207        0.6307944084
 C         -4.6755774883        3.7013064671       -0.4992192787
 H         -4.8278015310        4.6889183123       -0.0575057689
 H         -4.4293911947        3.8513389088       -1.5526792358
 C         -3.4797451720        3.0366000408        0.1856717151
 H         -3.7760330016        2.6126855620        1.1444533134
 H         -2.7424457057        3.8143903854        0.3949948907
 C         -2.7978267847        1.9624554045       -0.6750289021
 H         -3.1366071424        2.0446599830       -1.7118530454
 H         -1.7177062716        2.1382246723       -0.6996534826
 H         -5.2997981232        1.3357636280       -1.6696155227
 H         -6.9369127145        1.1464048241       -1.0685170616
 H         -6.1188160835       -0.3073911759        0.4406601191
 H         -5.4814314931        1.0827300531        1.2931758532
 O         -4.1160155763       -1.3634318951        0.5731978114
 C         -2.9930387845       -2.1687686632        0.5618331672
 O         -3.1864714024       -3.3347183703        0.9609711836
 H          2.0671758231       -1.9547194603       -0.6049361470
 C          1.8194171997       -1.6781059959        0.4056321844
 C          0.5439097247       -1.8802302738        0.9073850926
 C          0.2771778931       -1.5035107193        2.2221681066
 C          1.2565672698       -0.9266698557        3.0062578387
 C          2.5232660932       -0.7043227552        2.4932336196
 C          2.8021904064       -1.0825431211        1.1865889685
 N          4.0861244979       -0.8915896152        0.6401947911
 S          4.2614602553        0.0177026513       -0.7559804367
 O          3.5257832273       -0.5885818334       -1.8339147464
 O          5.6924702649        0.1274720808       -0.9417331632
 C          3.5970686585        1.6205604945       -0.3396188227
 C          2.2295844175        1.8056856925       -0.2990093876
 C          1.7407515356        3.0432467960        0.0920022021
 C          2.6135285310        4.0648631729        0.4311427477
 C          3.9844976879        3.8605577296        0.3839009693
 C          4.4820981842        2.6261760458        0.0008324336
 H          5.5393485936        2.4218674964       -0.0532095971
 H          4.6635564953        4.6560156866        0.6457906975
 H          2.2226037127        5.0240664323        0.7324077340
 H          0.6729897702        3.1912647638        0.1286644237
 H          1.5574948829        1.0059486700       -0.5679078106
 H          4.7724508260       -0.5882880033        1.3174725725
 H          3.2891484045       -0.2462123986        3.1007189182
 H          1.0320736893       -0.6402769725        4.0226353719
 H         -0.7157367430       -1.6693860481        2.6185303277
 C         -0.5631546742       -2.5045793116        0.0937276618
 H         -0.8578654178       -3.4456152186        0.5811377182
 C         -0.1694709037       -2.8033017963       -1.3377875186
 C          0.5471469982       -4.0759508384       -1.6711525890
 C         -0.8843783563       -3.8934922918       -2.0752516469
 H         -1.1122215187       -3.7462432106       -3.1203700358
 H         -1.6436959697       -4.4408307277       -1.5353432669
 H          0.7617876341       -4.7560531470       -0.8606210101
 H          1.3064536716       -4.0515475264       -2.4385238150
 H          0.0924891758       -1.9123162497       -1.8979736767
 O         -0.6246630036        0.2513318555       -0.7006321510
