  62
        -98.94311331
 C         -2.0643745734       -1.3752985474        0.3345440010
 C         -2.0603407984       -0.2360123078        1.1819995523
 C         -3.0462935856        0.8049922011        0.8793287723
 C         -3.8994723044        0.6327405917       -0.1465047602
 C         -4.9941390781        1.5793273083       -0.5584483613
 C         -4.5255402227        2.7188042084       -1.4734047863
 C         -3.6860980834        3.7973223888       -0.7878813810
 H         -3.6109922913        4.6348157709       -1.4843673219
 H         -4.2119529922        4.1569363210        0.0971086007
 C         -2.2701329220        3.3461373538       -0.4024792945
 H         -2.0164181893        2.4346010178       -0.9484084399
 H         -1.5533988286        4.1117307952       -0.7060565532
 C         -2.0660391103        3.0978585423        1.0921710828
 H         -2.1821833761        4.0358430315        1.6394950148
 H         -1.0446442638        2.7391636519        1.2430892820
 C         -3.0226196032        2.0613647853        1.6960611337
 H         -2.6624016129        1.8023352006        2.6946098819
 H         -4.0260008198        2.4778900439        1.7833730724
 H         -5.4188264129        3.1914303543       -1.8883949316
 H         -3.9607584523        2.2896186799       -2.3042426359
 H         -5.4700367530        1.9964279782        0.3296088253
 H         -5.7317721282        0.9837567070       -1.1007452339
 O         -3.8711069091       -0.4696894323       -0.9380506847
 C         -2.9360956956       -1.4796023189       -0.7499667559
 O         -3.0089558053       -2.3835573292       -1.6047466634
 O         -1.2711712032       -0.1044865780        2.1558876991
 C         -1.0345421173       -2.4481859941        0.6474200324
 C          0.2180941838       -2.2028534228       -0.1590732100
 C          0.2315086404       -2.3462097527       -1.5423579058
 C          1.3858296166       -2.0884654752       -2.2594769990
 C          2.5457178757       -1.6879340050       -1.6182845726
 C          2.5391158012       -1.5305688474       -0.2384192268
 C          1.3781257627       -1.7894676551        0.4797571916
 H          1.3713652727       -1.6538756541        1.5527544339
 N          3.7129096240       -1.1415413191        0.4331711188
 S          4.5502611264        0.2247932920       -0.0432162889
 O          5.0088254169        0.0531488470       -1.3978794913
 O          5.5700463528        0.4084354214        0.9629123540
 C          3.3742577691        1.5626448314        0.0403108642
 C          2.5019572752        1.7646364631       -1.0107306626
 C          1.5728216885        2.7886307188       -0.9194789894
 C          1.5334052304        3.5888423698        0.2119752485
 C          2.4121094101        3.3688543310        1.2613140559
 C          3.3390741360        2.3428984146        1.1789083462
 H          4.0462669890        2.1420894449        1.9675871811
 H          2.3754305132        3.9912602912        2.1409070570
 H          0.8143837448        4.3901961442        0.2762936460
 H          0.8825899186        2.9577876793       -1.7305542581
 H          2.5667943197        1.1301272221       -1.8795464506
 H          3.6185780046       -1.1456005224        1.4387930944
 H          3.4506019777       -1.4849956891       -2.1679717798
 H          1.3851552385       -2.2044261154       -3.3330124663
 H         -0.6741270418       -2.6436495943       -2.0486925603
 H         -0.7808389874       -2.2992667611        1.7059065302
 C         -1.5381823283       -3.8661854464        0.4754513796
 C         -0.8240833407       -4.9757911563        1.1853524955
 C         -2.1911762867       -4.5560376638        1.6337315731
 H         -3.0254024051       -5.2124495291        1.4370997899
 H         -2.2781918612       -4.0070655322        2.5602021896
 H         -0.7160738874       -5.9236306699        0.6810432778
 H          0.0170540435       -4.7121949155        1.8088224273
 H         -1.9350915035       -4.0719583822       -0.5092439108
