  62
        -98.94334817
 C         -2.5289953181       -1.1599952117        0.0058882782
 C         -3.4294422121       -0.5422214257        0.9155070397
 C         -4.3184779460        0.4823275063        0.3604992828
 C         -4.2726073950        0.7594656371       -0.9547761331
 C         -5.1268465592        1.7625738644       -1.6808998694
 C         -4.5936871589        3.2002260514       -1.6100567915
 C         -4.7438093928        3.8834218689       -0.2501192549
 H         -4.5346264219        4.9444217123       -0.4004101344
 H         -5.7782713443        3.8000433552        0.0844020602
 C         -3.8037118836        3.3446595486        0.8375007531
 H         -3.3449319770        4.1812006202        1.3692653349
 H         -2.9926278916        2.7794197117        0.3722048346
 C         -4.4840877911        2.4619552628        1.8840755079
 H         -5.2065052521        3.0544682164        2.4497322646
 H         -3.7200972783        2.1065606544        2.5802037258
 C         -5.2039706327        1.2366210298        1.3055181460
 H         -5.4580400652        0.5663087410        2.1301412722
 H         -6.1231283534        1.5407898315        0.8053007501
 H         -5.1418586594        3.7875186725       -2.3503624029
 H         -3.5409062841        3.1968865534       -1.9020439079
 H         -6.1437167923        1.7301753485       -1.2888512244
 H         -5.1475219103        1.4537973375       -2.7283096160
 O         -3.4241523356        0.1218129721       -1.8015154301
 C         -2.5151130820       -0.8240408016       -1.3475630502
 O         -1.7805123801       -1.2696671126       -2.2538535610
 O         -3.4887266770       -0.8412756172        2.1373667028
 C         -1.5823079035       -2.1937114346        0.5929658030
 C         -0.2198948050       -1.5968033083        0.8579995594
 C          0.2876003907       -1.5244444950        2.1499288476
 C          1.5364851809       -0.9768771265        2.3859172718
 C          2.3000837347       -0.4844108952        1.3428761991
 C          1.8023405564       -0.5521670516        0.0479068493
 C          0.5546893505       -1.1133202312       -0.1868581254
 H          0.1701999307       -1.1592313123       -1.1952327276
 N          2.5480820853       -0.0242777289       -1.0180589107
 S          4.1822411696       -0.3781560048       -1.1329681711
 O          4.5116670124       -0.2007858529       -2.5301932948
 O          4.4896349433       -1.6681149950       -0.5597679202
 C          4.9627897111        0.9122732653       -0.1855104040
 C          4.6526846654        2.2228199467       -0.4917720897
 C          5.2569934999        3.2397208963        0.2298867354
 C          6.1588106879        2.9310880347        1.2375439064
 C          6.4628504979        1.6104889225        1.5301652499
 C          5.8608565854        0.5884532204        0.8125540242
 H          6.0621351522       -0.4526805331        1.0086286373
 H          7.1642780973        1.3726036133        2.3136214283
 H          6.6270211729        3.7249309076        1.7978048397
 H          5.0224139965        4.2678222086        0.0052648194
 H          3.9489470720        2.4207196442       -1.2831790702
 H          2.0892109546       -0.1108119429       -1.9132907144
 H          3.2713873018       -0.0530098855        1.5212703320
 H          1.9181750509       -0.9273581156        3.3942396295
 H         -0.3097963865       -1.8899654150        2.9723249435
 H         -2.0218559380       -2.4623720897        1.5630471014
 C         -1.4655632150       -3.4536612297       -0.2422118038
 C         -1.0130384875       -4.7212540763        0.4156948112
 C         -2.4382207186       -4.5716658346       -0.0233922958
 H         -2.7784885051       -5.1325937845       -0.8808542643
 H         -3.1940932667       -4.4344744051        0.7361387042
 H         -0.3696123081       -5.3871251487       -0.1387892603
 H         -0.8027876595       -4.6879707090        1.4739542876
 H         -1.1414798065       -3.2707451703       -1.2585360936
