  62
        -98.94004607
 C          1.7368602686        1.2873643354        0.5749921651
 C          1.5495418082        0.2771055500       -0.4022350315
 C          2.7727992629       -0.2070488429       -1.0608963216
 C          3.9674493428        0.3190683731       -0.7398540240
 C          5.2942592944       -0.0537377883       -1.3431937750
 C          5.9461077118       -1.2846941909       -0.6988419778
 C          5.2842562641       -2.6218376069       -1.0346478857
 H          5.1868682505       -2.7168560865       -2.1165710463
 H          5.9625989031       -3.4085559597       -0.6984703107
 C          3.9153691637       -2.8361861018       -0.3728681767
 H          3.7940006410       -2.1317948600        0.4535518530
 H          3.8702627045       -3.8399319924        0.0559301561
 C          2.7236627628       -2.6962411834       -1.3205187169
 H          2.7622190432       -3.4844720829       -2.0760840647
 H          1.8050670974       -2.8320488883       -0.7423470753
 C          2.6390500097       -1.3399949298       -2.0330184623
 H          3.4039065261       -1.2728994534       -2.8066750085
 H          1.6554811385       -1.2648603537       -2.5034276756
 H          5.9582836376       -1.1467316519        0.3848309788
 H          6.9829267093       -1.3213692031       -1.0408653339
 H          5.1768155017       -0.2212359186       -2.4140949120
 H          5.9552790698        0.8028996519       -1.1946585150
 O          4.1044249273        1.2966405587        0.1946965565
 C          3.0083508006        1.7721506197        0.8960986910
 O          3.2924716415        2.6185013257        1.7673764420
 H         -1.9075944238        0.8801650628        0.6667066943
 C         -1.4757911543        0.3529121490        1.5013561870
 C         -0.2225597968        0.7095660936        1.9759597921
 C          0.3223666830       -0.0086584035        3.0370693852
 C         -0.3742825494       -1.0480997801        3.6216616134
 C         -1.6273749910       -1.3960389446        3.1496505150
 C         -2.1739891422       -0.6992112479        2.0798738461
 N         -3.4530748004       -1.0307515280        1.5849188477
 S         -3.5405856426       -1.6490639554        0.0188519129
 O         -4.8005011394       -2.3670489591       -0.0039881399
 O         -2.3708449376       -2.4311170702       -0.3044651727
 C         -3.6892439729       -0.2254855954       -1.0352147408
 C         -2.6449747087        0.1405659591       -1.8594357440
 C         -2.8179171403        1.2261489756       -2.7052988639
 C         -4.0153231162        1.9247591344       -2.7035417916
 C         -5.0496305613        1.5485177055       -1.8591911000
 C         -4.8895422904        0.4587432674       -1.0196145007
 H         -5.6720302952        0.1177337091       -0.3623406835
 H         -5.9776372943        2.0973261969       -1.8576797103
 H         -4.1410848654        2.7687086820       -3.3638429290
 H         -2.0120389157        1.5225018014       -3.3580647259
 H         -1.7165334806       -0.4057960016       -1.8067934346
 H         -3.9634529347       -1.6532009913        2.1975499357
 H         -2.1779143347       -2.2088098700        3.6005640811
 H          0.0596676214       -1.5926278939        4.4469571761
 H          1.3051330944        0.2628072809        3.3993263245
 C          0.5833544511        1.8440347843        1.3937447728
 H          1.0674496187        2.3669626761        2.2348434967
 C         -0.2677036854        2.8828064613        0.6802317427
 C          0.3862920475        3.9343218341       -0.1655468873
 C         -0.4865006306        2.8959212533       -0.8003635447
 H         -1.4578575865        3.1961141136       -1.1648553128
 H         -0.0217308181        2.1193331256       -1.3854864599
 H          1.4552915511        3.8612613655       -0.3057360844
 H          0.0222544479        4.9484790824       -0.1017424717
 H         -1.0992336283        3.2092663653        1.2974090283
 O          0.4332492547       -0.1979570552       -0.7292084405
