  62
        -98.93727433
 C          1.5910263746        1.4598423259        0.1743782491
 C          1.6367395193        0.2474357098       -0.5549255885
 C          2.9815537824       -0.2659277267       -0.8680291968
 C          4.0617560785        0.4288573007       -0.4679030679
 C          5.4916102497        0.0046975449       -0.6494459081
 C          5.8600090975       -1.0710053153        0.3920571919
 C          6.1732872737       -2.4435952084       -0.2039172224
 H          7.1687598673       -2.4173904279       -0.6520519190
 H          6.2017049357       -3.1594978899        0.6203325551
 C          5.1939109154       -2.9477752116       -1.2682681282
 H          5.4157539833       -2.4737190919       -2.2255054302
 H          5.3863203532       -4.0149616081       -1.3976782693
 C          3.7044163329       -2.7508516178       -0.9567949005
 H          3.1655804983       -3.6394445817       -1.2928182666
 H          3.5413310824       -2.6729802229        0.1186095946
 C          3.0560490436       -1.5429384214       -1.6586569411
 H          3.5642568748       -1.3571663900       -2.6090929562
 H          2.0148910850       -1.7923770977       -1.8849362133
 H          6.7280216542       -0.7413247321        0.9649542398
 H          5.0326998421       -1.1607013188        1.0994162009
 H          5.6376924712       -0.3734679552       -1.6586967213
 H          6.1119448753        0.8909925244       -0.5147219019
 O          3.9751711891        1.5902026639        0.2316105112
 C          2.7474196685        2.1266297707        0.5802234139
 O          2.8161521932        3.1841175354        1.2384479110
 O          0.6122515884       -0.3745089068       -0.9393604377
 C          0.2579233343        2.0720756984        0.5728031012
 C         -0.4339669178        1.1436580709        1.5415951406
 C          0.1742316193        0.8799442128        2.7669985803
 C         -0.4171358898        0.0279583797        3.6789667764
 C         -1.6169297003       -0.5963041104        3.3797807019
 C         -2.2276462589       -0.3466192840        2.1587274019
 C         -1.6442235928        0.5341589124        1.2572397795
 H         -2.1418483251        0.7328253133        0.3252344352
 N         -3.4518088238       -0.9514863568        1.8128934200
 S         -3.4784880756       -1.8899055057        0.4128112848
 O         -4.6762027977       -2.6939393833        0.5503187558
 O         -2.2453978335       -2.6242930710        0.2524582405
 C         -3.7175248229       -0.7310386180       -0.9152805322
 C         -2.7114458980       -0.5195965365       -1.8374257412
 C         -2.9312306527        0.3870108457       -2.8634264938
 C         -4.1400893671        1.0609971445       -2.9470170300
 C         -5.1395410960        0.8340844437       -2.0123060996
 C         -4.9300342737       -0.0730657654       -0.9864153178
 H         -5.6810119356       -0.2868745033       -0.2443051561
 H         -6.0772655739        1.3616114008       -2.0803918557
 H         -4.3016177853        1.7683991768       -3.7454118608
 H         -2.1511647287        0.5667114018       -3.5866012668
 H         -1.7705412527       -1.0350922388       -1.7196997514
 H         -3.8737198892       -1.4729585025        2.5694805361
 H         -2.0740954941       -1.2736262370        4.0859211102
 H          0.0626736541       -0.1616429956        4.6276738757
 H          1.1191169066        1.3564058524        2.9924895619
 H          0.5019380841        2.9994288782        1.1102007198
 C         -0.5707375597        2.4129464360       -0.6471889037
 C         -1.6988691669        3.3926960691       -0.5349289056
 C         -0.4459667960        3.7715421971       -1.2646847806
 H         -0.4783812835        3.8524847103       -2.3405886316
 H          0.2294092901        4.4722404924       -0.7953588074
 H         -2.5946360534        3.2112848624       -1.1096436031
 H         -1.8764312153        3.8393839815        0.4315358732
 H         -0.6948653641        1.5720723947       -1.3181092879
