  62
        -98.94716665
 C          1.6009353137        1.5696265959       -0.2429801061
 C          2.7582307159        1.2289857362        0.5040919043
 C          3.5459914051        0.1017690198       -0.0045808645
 C          3.1595445304       -0.5286839021       -1.1283514524
 C          3.8746980781       -1.6745975624       -1.7920809822
 C          3.5360488413       -3.0549651380       -1.2125409536
 C          4.1050990157       -3.3351854555        0.1785778225
 H          5.1788860156       -3.1453115909        0.1748967443
 H          3.9654711401       -4.4004573157        0.3731655073
 C          3.4426022091       -2.5333850112        1.3079661046
 H          3.2178264234       -3.1985913818        2.1445128518
 H          2.4918304517       -2.1234647548        0.9594595998
 C          4.2990000643       -1.3919571885        1.8565328939
 H          5.1986219553       -1.7988339539        2.3236825729
 H          3.7245521331       -0.8727116721        2.6278143450
 C          4.7210757964       -0.3580761456        0.8037939108
 H          5.4919664344       -0.7736519709        0.1550836666
 H          5.1312279613        0.5123507203        1.3216054698
 H          3.9351345678       -3.8025288239       -1.9021175625
 H          2.4506162908       -3.1703112885       -1.1913293058
 H          3.5763895301       -1.6605625067       -2.8428631071
 H          4.9514735897       -1.5114734395       -1.7368671170
 O          2.0519956545       -0.1625812834       -1.8249976938
 C          1.2317228880        0.8713736034       -1.3923176849
 O          0.2378466545        1.0573086313       -2.1207125742
 H         -1.6602956586        2.2133080991       -0.9743965053
 C         -1.6479987662        1.8442762175        0.0386314180
 C         -0.5297980158        2.0445342995        0.8334208158
 C         -0.5317462571        1.5321163967        2.1279582800
 C         -1.6249659949        0.8381748341        2.6126341129
 C         -2.7293620828        0.6174755214        1.8077785744
 C         -2.7293555086        1.1142525055        0.5113908899
 N         -3.8191106051        0.8332818268       -0.3350808269
 S         -4.2834475425       -0.7751579628       -0.4049444665
 O         -4.8022508689       -0.9725649569       -1.7406876080
 O         -5.2101807088       -1.0480824105        0.6666485017
 C         -2.7964431019       -1.7346596935       -0.1586919346
 C         -1.7149699019       -1.5129632213       -0.9874241016
 C         -0.5601521581       -2.2528775149       -0.7921338278
 C         -0.5033116823       -3.1973916685        0.2205191919
 C         -1.5997869764       -3.4111340260        1.0414619887
 C         -2.7570970988       -2.6735933528        0.8526377569
 H         -3.6300351466       -2.8029149544        1.4716797121
 H         -1.5533692379       -4.1463686067        1.8285164145
 H          0.3999852283       -3.7683475954        0.3717643930
 H          0.2890662060       -2.0695910218       -1.4323311639
 H         -1.7602633715       -0.7656370105       -1.7640179654
 H         -3.7021440641        1.2052614022       -1.2670515128
 H         -3.5839642635        0.0611376223        2.1577563596
 H         -1.6143839687        0.4539057341        3.6210807853
 H          0.3450874880        1.6708943930        2.7444755259
 C          0.7205513147        2.6895411732        0.2901355686
 H          1.2780903771        3.1232269022        1.1306120675
 C          0.4618180487        3.7734499133       -0.7340455753
 C         -0.1132299922        5.0814069338       -0.2815584276
 C          1.3147916896        5.0050869965       -0.7288153980
 H          1.5840310192        5.4484338855       -1.6758665381
 H          2.0895780727        5.0744124936        0.0205215240
 H         -0.3086809678        5.2000838092        0.7734788063
 H         -0.8268162481        5.5805516350       -0.9191844932
 H          0.1554743969        3.3938854969       -1.7008207960
 O          3.1161218857        1.8423808578        1.5436188928
