  62
        -98.93764523
 C          2.2442026392       -0.7731727126        0.0658372634
 C          3.5806235891       -1.2153649050        0.2441754234
 C          4.6220084918       -0.3995380871       -0.3897042898
 C          4.2712953373        0.6550746020       -1.1469373168
 C          5.2128826694        1.5761253180       -1.8741507648
 C          5.7738758299        2.7061945423       -1.0000189957
 C          6.8126766137        2.2725557008        0.0351046332
 H          7.5943870691        1.6934998760       -0.4573792297
 H          7.2757093808        3.1816435749        0.4238793613
 C          6.2387731695        1.4701871694        1.2114178568
 H          5.1556909589        1.6097290659        1.2531470177
 H          6.6454228905        1.8563879574        2.1488162826
 C          6.5451880476       -0.0271543133        1.1677766264
 H          6.0629046270       -0.5004674397        2.0271092994
 H          7.6222907891       -0.1829789045        1.2587190336
 C          6.0538068040       -0.7360710728       -0.1014024377
 H          6.6855242219       -0.4719451393       -0.9489831008
 H          6.1155214312       -1.8146988634        0.0614625978
 H          6.2395226434        3.4344011597       -1.6680382955
 H          4.9415110101        3.2030913960       -0.4958359198
 H          6.0351615755        0.9998598662       -2.2989684074
 H          4.6413012446        2.0228204988       -2.6905444779
 O          2.9742993009        1.0001682399       -1.3605593409
 C          1.9293333348        0.3176535514       -0.7457749725
 O          0.8051125479        0.7765601452       -1.0221909246
 O          3.8872842987       -2.2462046425        0.8994553039
 C          1.1494112773       -1.5583260692        0.7652094100
 C         -0.0217846804       -1.7772229283       -0.1581259478
 C          0.1631691643       -2.5521680489       -1.3000481091
 C         -0.8729478824       -2.7534523048       -2.1906074378
 C         -2.1146895574       -2.1889699610       -1.9596155757
 C         -2.3141229743       -1.4244169484       -0.8158956223
 C         -1.2723574912       -1.2292986893        0.0795688197
 H         -1.4431569347       -0.6093644102        0.9426813701
 N         -3.5859934103       -0.8890531553       -0.5439825246
 S         -3.7717467907        0.5485476986        0.3168402490
 O         -3.0927212133        1.6433098759       -0.3380526332
 O         -3.4366585356        0.3135261766        1.6990626159
 C         -5.5380774207        0.7523337242        0.1622983106
 C         -6.3658510774       -0.0051550637        0.9693123603
 C         -7.7384647888        0.1332075653        0.8390090974
 C         -8.2584408339        1.0218175898       -0.0905474612
 C         -7.4157224672        1.7768847221       -0.8920636705
 C         -6.0417620166        1.6420190714       -0.7673868572
 H         -5.3472663106        2.2138915057       -1.3619779372
 H         -7.8221191465        2.4694437955       -1.6114832526
 H         -9.3271150852        1.1290422882       -0.1890270495
 H         -8.3970771703       -0.4499030903        1.4622169624
 H         -5.9162206571       -0.6748416708        1.6835258415
 H         -4.1843591984       -0.8881126959       -1.3592211326
 H         -2.9224072231       -2.3366388477       -2.6604521873
 H         -0.7122898905       -3.3480058213       -3.0775684586
 H          1.1388408209       -2.9801649463       -1.4879916293
 H          1.6066402562       -2.5403000681        0.9752646107
 C          0.7425115739       -0.9720967133        2.1091825502
 C          1.7153064459       -0.2067518171        2.9537763506
 C          0.5596761418        0.5006192294        2.3149801368
 H         -0.2591215207        0.8322235771        2.9377148624
 H          0.7476646111        1.1502097676        1.4733504529
 H          1.6987117940       -0.3605820201        4.0221733091
 H          2.7032830055       -0.0362757099        2.5513396040
 H          0.0529041526       -1.6209359861        2.6413996841
