  62
        -98.94661075
 C         -2.4874606754       -0.3577958582       -0.0339122941
 C         -2.2757443141       -1.4954351885       -0.8460954989
 C         -1.5984711573       -2.6243083724       -0.2014422019
 C         -1.2272560723       -2.5293257817        1.0884344643
 C         -0.5004179802       -3.5841871350        1.8775826095
 C          1.0197130873       -3.5599686753        1.6631008607
 C          1.4953455400       -4.1296356274        0.3255194985
 H          2.5729102458       -4.2839415621        0.4102319599
 H          1.0361323941       -5.1055156152        0.1612966474
 C          1.2242867199       -3.2162656068       -0.8777985808
 H          1.0340749768       -2.2017239226       -0.5200661302
 H          2.1171247558       -3.1752145944       -1.5067482149
 C          0.0658653355       -3.6624676374       -1.7704336348
 H         -0.0677713344       -2.9148812175       -2.5566043337
 H          0.3158309999       -4.6132613691       -2.2475422212
 C         -1.2739514718       -3.8234980238       -1.0416280004
 H         -1.2619805221       -4.7233668341       -0.4270086206
 H         -2.0615404929       -3.9222765618       -1.7932446502
 H          1.3646957471       -2.5267289705        1.7591396336
 H          1.4738673611       -4.1432373697        2.4679989791
 H         -0.8928976361       -4.5713311709        1.6303313764
 H         -0.7045892139       -3.3805978801        2.9310584694
 O         -1.4929452702       -1.4359664078        1.8509235819
 C         -2.0855502710       -0.3119878096        1.3015993259
 O         -2.2227017206        0.6398018993        2.0971570595
 O         -2.6279911120       -1.5591939399       -2.0562845878
 C         -3.0739077478        0.8966008552       -0.6559233622
 C         -2.1013753480        2.0374720887       -0.4767232446
 C         -2.4872999615        3.3323308137       -0.1567454423
 C         -1.5338898832        4.3133877861        0.0574283242
 C         -0.1851098855        4.0172924829       -0.0090172969
 C          0.2107878755        2.7279081207       -0.3454380997
 C         -0.7461635210        1.7673873013       -0.6213671986
 H         -0.4294986227        0.7720273179       -0.8932746774
 N          1.5770752671        2.3701871410       -0.4151958976
 S          2.0973668757        1.1269459843        0.6126914433
 O          1.2678930599       -0.0361701292        0.4540952267
 O          2.2363254093        1.6500003247        1.9577146947
 C          3.7125436851        0.8155234499       -0.0738519513
 C          4.8209057245        1.4300212900        0.4760052726
 C          6.0648512894        1.2012213637       -0.0910783402
 C          6.1778416362        0.3681272633       -1.1936909899
 C          5.0558575195       -0.2427208446       -1.7338712753
 C          3.8096705153       -0.0173051284       -1.1714261886
 H          2.9115173147       -0.4759894842       -1.5520603751
 H          5.1464892350       -0.8922869401       -2.5895588749
 H          7.1464786306        0.1909314907       -1.6336202831
 H          6.9391760013        1.6719908971        0.3285918363
 H          4.6873499668        2.0594760049        1.3409831060
 H          2.1744896454        3.1695267211       -0.2389817291
 H          0.5568279966        4.7729441798        0.2033240221
 H         -1.8463317054        5.3158949208        0.3084615647
 H         -3.5339400183        3.5713306991       -0.0593097617
 H         -3.1709548487        0.6772026371       -1.7300951512
 C         -4.4486448840        1.1871528428       -0.0908870788
 C         -5.4914131511        1.8572404967       -0.9339588906
 C         -5.6192488893        0.4023450147       -0.6000131247
 H         -6.3792420974        0.0960716093        0.1029439355
 H         -5.4256113781       -0.3223343374       -1.3772651837
 H         -6.1694087087        2.5509067938       -0.4598749947
 H         -5.2226151991        2.1214167591       -1.9455017321
 H         -4.4190224959        1.4135508619        0.9694426219
