  62
        -98.94824618
 C         -1.1846792138       -1.2200059445       -0.0209861518
 C         -1.9135583681       -0.6458588449        1.0474116273
 C         -2.5481282322        0.6499023741        0.7707090223
 C         -2.3950936869        1.2116790378       -0.4423287319
 C         -3.0211406459        2.5059110964       -0.8729525631
 C         -4.3908413102        2.2720686636       -1.5254765851
 C         -5.3163045119        1.3686333596       -0.7107428092
 H         -6.2629243082        1.3001284110       -1.2509294666
 H         -4.8924869894        0.3624963907       -0.6749046609
 C         -5.5796753531        1.8562322593        0.7207940350
 H         -5.3218281520        2.9124490480        0.8068922428
 H         -6.6472180142        1.7648978285        0.9317337082
 C         -4.8438356257        1.0669350948        1.8054226409
 H         -5.2636973877        1.3472126822        2.7752482933
 H         -5.0247333684       -0.0022075785        1.6679397477
 C         -3.3281745167        1.2917986101        1.8827909030
 H         -3.1148019427        2.3619431563        1.9353081766
 H         -2.9677948130        0.8293409414        2.8068937087
 H         -4.8689349976        3.2409804986       -1.6798881743
 H         -4.2347200737        1.8094570297       -2.5025136167
 H         -3.1245984275        3.1571452154       -0.0070316395
 H         -2.3601432916        2.9861404412       -1.5964451513
 O         -1.6785857312        0.6356174835       -1.4404229847
 C         -1.0454174717       -0.5877308199       -1.2556686343
 O         -0.4075765254       -0.9878555162       -2.2459516646
 O         -2.0271166346       -1.1914634819        2.1790219556
 C         -0.4848146013       -2.5491714914        0.1951444558
 C          1.0064424580       -2.3729595432        0.0428701179
 C          1.7917473993       -3.1638868021       -0.7852141810
 C          3.1559011418       -2.9461938700       -0.8725700479
 C          3.7617163741       -1.9420957324       -0.1410621792
 C          2.9868191554       -1.1511990409        0.7007756733
 C          1.6220729034       -1.3733211106        0.7881579161
 H          1.0295790184       -0.7575154621        1.4498127598
 N          3.5823468502       -0.1435079956        1.4813341798
 S          2.9113218510        1.3855866060        1.5341538506
 O          3.9462067608        2.2080261720        2.1228074634
 O          1.6489058843        1.3582853906        2.2271432252
 C          2.6811106287        1.8380039220       -0.1729750791
 C          1.4331756426        1.7084313001       -0.7443304561
 C          1.2772350937        1.9964422068       -2.0905968035
 C          2.3703001711        2.4069802222       -2.8373156990
 C          3.6183206140        2.5408332055       -2.2469480309
 C          3.7797232365        2.2494844035       -0.9026634886
 H          4.7295733083        2.3496901505       -0.4028882624
 H          4.4636698652        2.8658770651       -2.8317970888
 H          2.2450055301        2.6242010179       -3.8863094627
 H          0.3076059465        1.8752374590       -2.5470086353
 H          0.6071807856        1.3851572577       -0.1296105972
 H          4.5848121303       -0.0803433050        1.3729623597
 H          4.8252660592       -1.7723798144       -0.2116758018
 H          3.7541267139       -3.5644620011       -1.5242309499
 H          1.3363605994       -3.9486987973       -1.3658239754
 H         -0.6867342099       -2.8166884053        1.2433936388
 C         -1.0728963197       -3.6173706310       -0.7022825660
 C         -1.0169535056       -5.0581206507       -0.2934859788
 C         -2.3213882261       -4.3214092315       -0.2657943007
 H         -3.0666214011       -4.5595212226       -1.0099180313
 H         -2.7358497677       -4.0473631692        0.6937029718
 H         -0.8691642689       -5.8063058645       -1.0574187540
 H         -0.5475274679       -5.2915488328        0.6501927681
 H         -0.9777191487       -3.3774671744       -1.7551017562
