  62
        -98.94967498
 C         -1.4971692171       -1.0681869012        0.0385792550
 C         -2.5138565936       -0.6406688461        0.9227303330
 C         -3.0472040061        0.7061283792        0.6849084045
 C         -2.5284269462        1.4533916206       -0.3070764251
 C         -3.0037192164        2.8267084422       -0.6821845180
 C         -4.1008962559        2.7655736497       -1.7542833563
 C         -5.2246713723        1.7808773553       -1.4311061901
 H         -5.9548902078        1.8436192224       -2.2406661253
 H         -4.8210377793        0.7659148351       -1.4383006630
 C         -5.9255149079        2.0364357383       -0.0896139618
 H         -5.7167866385        3.0515273105        0.2500819286
 H         -7.0046703139        1.9587884403       -0.2373438760
 C         -5.5557069973        1.0472233872        1.0170972520
 H         -5.6742017611        0.0249179446        0.6493950534
 H         -6.2591804058        1.1819498374        1.8430261951
 C         -4.1416480245        1.1892046166        1.5948991730
 H         -3.9653663501        2.2254808466        1.8919821019
 H         -4.0833411186        0.5630416948        2.4904214071
 H         -3.6435280540        2.4659735423       -2.6999567741
 H         -4.5162024185        3.7672013902       -1.8794491397
 H         -2.1516424830        3.3870353543       -1.0714069893
 H         -3.3761773299        3.3304152309        0.2079176127
 O         -1.5355179898        1.0185931757       -1.1218431525
 C         -0.9893647948       -0.2434419208       -0.9643291894
 O         -0.0785413128       -0.5157151088       -1.7709457633
 O         -2.9507447915       -1.3519292378        1.8696833130
 C         -0.8846888539       -2.4438176421        0.2227967721
 C          0.6080925099       -2.3352157705        0.4149895705
 C          1.5104662641       -3.2473687190       -0.1190919206
 C          2.8714134181       -3.0901291235        0.0795036678
 C          3.3626571882       -2.0113749746        0.7916779225
 C          2.4675133569       -1.0989825541        1.3368843704
 C          1.1050643292       -1.2814008137        1.1712794492
 H          0.4263633735       -0.5611272330        1.6049265892
 N          2.9107189704        0.0398951992        2.0456144671
 S          2.6064948370        1.5165111422        1.3072324331
 O          3.2368434284        2.5010860551        2.1616040397
 O          1.1924922204        1.6751557000        1.0874163207
 C          3.5015940488        1.4128285886       -0.2327030383
 C          2.9406241111        0.7484486120       -1.3048110047
 C          3.6933504435        0.6002860582       -2.4606545950
 C          4.9805823935        1.1101564880       -2.5242800308
 C          5.5278808745        1.7757284438       -1.4373404561
 C          4.7852128591        1.9240254222       -0.2777853791
 H          5.1660757216        2.4355248404        0.5916295716
 H          6.5281551220        2.1746508855       -1.4887969003
 H          5.5588410356        0.9885987624       -3.4266393588
 H          3.2596004966        0.0819480849       -3.3007654238
 H          1.9342601779        0.3632143581       -1.2402584129
 H          3.8894204053        0.0003451628        2.2985963527
 H          4.4250278139       -1.8719016066        0.9242841310
 H          3.5589276219       -3.8069315592       -0.3425285090
 H          1.1467792586       -4.0810130287       -0.6973338541
 H         -1.3256419213       -2.8401043681        1.1503326244
 C         -1.2738196068       -3.3503699120       -0.9280041559
 C         -1.4667347478       -4.8205994687       -0.7087209332
 C         -2.6524929412       -3.9370563838       -0.9494800213
 H         -3.1691297900       -4.0076513211       -1.8949164976
 H         -3.2992024538       -3.7066359076       -0.1152710450
 H         -1.1715640630       -5.5018499758       -1.4925049128
 H         -1.3165014353       -5.2018500310        0.2899889323
 H         -0.8552007937       -3.0214964867       -1.8727930192
