  62
        -98.94849839
 C          1.2286661785        1.5268088271        0.4899456050
 C          2.1263863916        1.1729466114       -0.5460090059
 C          3.1660520132        0.1985597031       -0.1862587449
 C          3.2154178163       -0.2843020119        1.0682811995
 C          4.2032203268       -1.3021984820        1.5587208095
 C          3.6543596554       -2.7291020554        1.4268716095
 C          3.0726892294       -3.0502471603        0.0496247789
 H          2.7726971886       -4.1010016917        0.0643709273
 H          2.1570333049       -2.4721500533       -0.1007419850
 C          4.0358138111       -2.8125166245       -1.1218491718
 H          3.9586601823       -3.6580913415       -1.8087979556
 H          5.0633037303       -2.7840511300       -0.7561173139
 C          3.7512783288       -1.5506286647       -1.9390481165
 H          4.3190772511       -1.6148649212       -2.8713959289
 H          2.6901126775       -1.5209563152       -2.2018824084
 C          4.1199554685       -0.2213031444       -1.2679203458
 H          5.1428213519       -0.2702600338       -0.8887627993
 H          4.0711518015        0.5616619946       -2.0304728698
 H          4.4604581719       -3.4296184449        1.6550795051
 H          2.8623081587       -2.8682082778        2.1665543145
 H          4.4097114521       -1.0997955145        2.6114268473
 H          5.1273054056       -1.2042604840        0.9921883365
 O          2.3394720612        0.0831616523        2.0378674822
 C          1.3056065041        0.9642559563        1.7626961955
 O          0.5333939034        1.1675130243        2.7229925476
 O          2.0635846371        1.6443084063       -1.7117345213
 C          0.0815441332        2.4768157206        0.2037298689
 C         -0.8216146817        1.9100911091       -0.8671737775
 C         -1.5268252720        2.7032053462       -1.7646035993
 C         -2.3598870843        2.1218976130       -2.7050069727
 C         -2.5236329721        0.7492770855       -2.7633480159
 C         -1.8245602195       -0.0518145623       -1.8680215761
 C         -0.9873109056        0.5347672584       -0.9336964445
 H         -0.4297570808       -0.1000992936       -0.2637749887
 N         -1.9428039229       -1.4491265273       -1.8882811519
 S         -1.8426691778       -2.3169469641       -0.4638106355
 O         -0.4845344409       -2.3521223188        0.0163400781
 O         -2.4294357735       -3.5991679554       -0.7910474922
 C         -2.9069361263       -1.4444085675        0.6711429960
 C         -2.3849461209       -0.7143047774        1.7184256450
 C         -3.2502120237       -0.0061886655        2.5384409675
 C         -4.6148515962       -0.0413966556        2.3010003097
 C         -5.1262295754       -0.7888149194        1.2502010624
 C         -4.2663394355       -1.4939062548        0.4254067797
 H         -4.6250757957       -2.0950006623       -0.3942740431
 H         -6.1887998249       -0.8200679652        1.0711230781
 H         -5.2820255935        0.5144814228        2.9406359987
 H         -2.8398266317        0.5722178845        3.3510903650
 H         -1.3194517915       -0.6954640312        1.8879114395
 H         -2.6462670591       -1.8154652852       -2.5117794974
 H         -3.1729170456        0.3002139537       -3.4989253470
 H         -2.8950530841        2.7486036288       -3.4020316791
 H         -1.4169077960        3.7749080819       -1.7327536856
 H         -0.5027282641        2.5375355129        1.1348324609
 C          0.6054530383        3.8587435498       -0.1327628387
 C         -0.1606854987        5.0818436144        0.2705378002
 C          1.1119192720        4.7281203733        0.9776436032
 H          1.9895691081        5.3316323827        0.8015771740
 H          1.0486537158        4.3335840366        1.9816937198
 H         -0.1551869142        5.9345944502       -0.3916255254
 H         -1.0887063507        4.9400168873        0.8036028108
 H          1.1480769939        3.8779492647       -1.0707039246
