  62
        -98.94629571
 C          1.6659611250        1.3687264190       -0.0977424865
 C          2.6979391097        0.8390015687        0.7106004386
 C          3.2426208099       -0.4542557872        0.2812719824
 C          2.7502598665       -1.0545621760       -0.8181446017
 C          3.2043409153       -2.3741822852       -1.3810146161
 C          2.5568198214       -3.5929549869       -0.7094167659
 C          3.0568681882       -3.9056413749        0.7013602708
 H          2.6892803487       -4.9008260047        0.9593877804
 H          4.1462760392       -3.9517589238        0.7012853486
 C          2.5817023770       -2.9132077364        1.7718262094
 H          1.7356157827       -2.3395193717        1.3850177675
 H          2.2227747034       -3.4619199323        2.6457438626
 C          3.6581856921       -1.9416940542        2.2559308045
 H          4.4504090424       -2.4960204231        2.7639844216
 H          3.2064316217       -1.2610280467        2.9825066103
 C          4.2890750260       -1.0957676673        1.1421690434
 H          4.8716835887       -0.2972074653        1.6083157844
 H          4.9574774455       -1.7082992158        0.5376143557
 H          1.4761869522       -3.4394865624       -0.6811091722
 H          2.7581619749       -4.4598495234       -1.3426678404
 H          2.9250803623       -2.3738928450       -2.4364048388
 H          4.2896484373       -2.4505105478       -1.3091094044
 O          1.7651809174       -0.5048804657       -1.5766840723
 C          1.1918750010        0.7118154477       -1.2347023967
 O          0.2934943551        1.0933142050       -2.0047803891
 O          3.1362675620        1.4135289347        1.7443480271
 C          1.0118699771        2.6791056701        0.2983411561
 C         -0.4762751028        2.4825939140        0.4542632360
 C         -1.4185465022        3.3876588210       -0.0156753086
 C         -2.7720440277        3.1333921622        0.1306284215
 C         -3.2163241048        1.9770747640        0.7445416174
 C         -2.2815603337        1.0683228169        1.2251161701
 C         -0.9282680591        1.3322782151        1.0900217371
 H         -0.2049777883        0.6205011382        1.4699391622
 N         -2.7185228350       -0.1223241515        1.8444381488
 S         -3.6265832178       -1.1818749046        0.9166715443
 O         -4.8843697865       -0.5559409765        0.5977199921
 O         -3.6966686416       -2.3988433538        1.6937057099
 C         -2.6897949568       -1.4651453576       -0.5738005069
 C         -1.8983124031       -2.5933402698       -0.6573208323
 C         -1.1550989319       -2.8049621711       -1.8070644688
 C         -1.1991106506       -1.8797546820       -2.8381053473
 C         -1.9929091598       -0.7487237014       -2.7357370106
 C         -2.7515387462       -0.5391310569       -1.5957903070
 H         -3.3854871054        0.3255594090       -1.4876964094
 H         -2.0138072514       -0.0236564944       -3.5322969635
 H         -0.6068222766       -2.0366557956       -3.7256945517
 H         -0.5444602645       -3.6896264881       -1.8979584217
 H         -1.8918101207       -3.2869529542        0.1688730469
 H         -1.9684923957       -0.6349717286        2.2867352996
 H         -4.2660841103        1.7527274460        0.8434560324
 H         -3.4921856834        3.8444765653       -0.2449695218
 H         -1.0944156835        4.2905856872       -0.5064184638
 H          1.4343571945        2.9362855173        1.2814621660
 C          1.3745968967        3.7712977140       -0.6864244094
 C          1.4776852353        5.1970380375       -0.2355909178
 C          2.7172903103        4.4267564668       -0.5747062850
 H          3.2487618861        4.6731249221       -1.4816209902
 H          3.3589693200        4.1051020510        0.2326764062
 H          1.1602523232        5.9765846529       -0.9117502208
 H          1.2829198487        5.4089922483        0.8048969233
 H          0.9954312676        3.5730023794       -1.6826755299
