  62
        -98.94088544
 C          1.6531914585        0.1025046777        0.7055304277
 C          2.9149795118        0.0832955452        1.3534446701
 C          4.0545098618        0.5680429384        0.5672856536
 C          3.8616579473        0.9845163613       -0.6971394400
 C          4.9164340274        1.5316913753       -1.6202537383
 C          5.7186376204        0.4533194395       -2.3612588549
 C          6.7145949251       -0.3235761729       -1.4993137306
 H          7.3560526360       -0.8871542897       -2.1797928750
 H          7.3509569699        0.3780412450       -0.9590202627
 C          6.0666094160       -1.3015978254       -0.5092508705
 H          6.5856839409       -2.2618027772       -0.5530137338
 H          5.0305614060       -1.4848131107       -0.8038017273
 C          6.0923089930       -0.8391967377        0.9476606307
 H          5.5763496221       -1.5878766025        1.5543316921
 H          7.1260978530       -0.7797553550        1.2952268997
 C          5.4158124990        0.5159823037        1.1925117080
 H          5.2928275822        0.6473943197        2.2704326200
 H          6.0412407985        1.3227993040        0.8107155920
 H          5.0187839625       -0.2439753709       -2.8275986040
 H          6.2734526471        0.9511829512       -3.1598679147
 H          5.5975055452        2.1722363748       -1.0591706074
 H          4.3948973270        2.1417763477       -2.3608107202
 O          2.6405483749        0.9692196804       -1.2909361610
 C          1.5105376257        0.5087288554       -0.6226486868
 O          0.4793856106        0.5232767458       -1.3179968959
 O          3.0808474980       -0.3215379624        2.5350520815
 C          0.4560784501       -0.4078890054        1.4875476808
 C         -0.3252461922       -1.3931243018        0.6573187357
 C          0.2832230391       -2.5910266412        0.2902322803
 C         -0.3874206547       -3.5142618905       -0.4872842347
 C         -1.6842877460       -3.2686733136       -0.9038418572
 C         -2.2994633217       -2.0760094325       -0.5447605202
 C         -1.6195198925       -1.1467911026        0.2304268345
 H         -2.1055208182       -0.2200866244        0.4835898242
 N         -3.5984088056       -1.7842981978       -0.9783377249
 S         -4.6421039493       -0.8826703544       -0.0429800156
 O         -4.4813482539       -1.1671177624        1.3647794704
 O         -5.9524619010       -1.1620292915       -0.5927826297
 C         -4.2352810935        0.8192673316       -0.3725778228
 C         -4.4577963017        1.7501975441        0.6229284484
 C         -4.1948786761        3.0862340648        0.3647092667
 C         -3.7148771503        3.4660933928       -0.8791542238
 C         -3.4968489235        2.5188539058       -1.8673577503
 C         -3.7630560143        1.1821672306       -1.6175503089
 H         -3.5940554808        0.4234924462       -2.3632612325
 H         -3.1157675159        2.8154519272       -2.8312160232
 H         -3.5056764433        4.5054702960       -1.0774910907
 H         -4.3620099358        3.8242335742        1.1334217742
 H         -4.8186469253        1.4095252556        1.5805182674
 H         -4.0663254513       -2.5148206208       -1.4928863084
 H         -2.2121265068       -3.9893653400       -1.5098304251
 H          0.0986502945       -4.4367202876       -0.7678402634
 H          1.2962975422       -2.7834724533        0.6174255606
 H          0.8992254470       -0.9580013509        2.3350343413
 C         -0.4120625462        0.6856018965        2.0910113583
 C          0.1916180004        1.9780024171        2.5506390565
 C         -0.7271384874        1.9592593576        1.3676981877
 H         -1.7175692858        2.3758406007        1.4789146685
 H         -0.3089745475        2.0939476004        0.3828946885
 H         -0.1632755993        2.4111562447        3.4735912994
 H          1.2477485371        2.1239330812        2.3763925348
 H         -1.2021439258        0.2732292286        2.7127314857
