  62
        -98.93639946
 C         -1.4178840370       -1.7739080112       -0.3436887137
 C         -1.4018635794       -0.4856108200       -0.9231085911
 C         -2.3944212014        0.4846235171       -0.4186798494
 C         -3.2156716609        0.1283011534        0.5833332797
 C         -4.2412806627        0.9542506100        1.3196473712
 C         -5.1128051144        1.9158148099        0.4984221829
 C         -4.7448722473        3.3891115502        0.6888405260
 H         -5.6238778685        3.9986352090        0.4671889370
 H         -4.4939264779        3.5493347686        1.7395952064
 C         -3.5995640081        3.8998103543       -0.1837024327
 H         -3.3564763902        4.9113020841        0.1499074094
 H         -3.9382526581        3.9705908057       -1.2195763927
 C         -2.3252414065        3.0543928767       -0.1515339542
 H         -2.0980251561        2.7314376351        0.8651470752
 H         -1.4924556377        3.6853287690       -0.4710329527
 C         -2.3822575839        1.8339942585       -1.0832109067
 H         -3.2452507239        1.9119480081       -1.7496567367
 H         -1.4982718337        1.8241192315       -1.7268292565
 H         -5.0770062836        1.6449003021       -0.5550092476
 H         -6.1443921142        1.7856654172        0.8300562324
 H         -4.8762133214        0.2239275077        1.8274491596
 H         -3.7188978740        1.5080546594        2.1053609324
 O         -3.1842878586       -1.1205659976        1.1317895572
 C         -2.2994937566       -2.0849163850        0.6944128254
 O         -2.3962642946       -3.1762219164        1.2931929432
 H          1.1125267009       -0.7147719263       -0.2866642211
 C          1.4563136425       -1.5662009668        0.2743918373
 C          0.7898026149       -2.7779501579        0.1603044747
 C          1.2583563068       -3.8703596084        0.8791935526
 C          2.3566721564       -3.7429501879        1.7111254631
 C          2.9828899240       -2.5199407270        1.8646904157
 C          2.5224066120       -1.4197575765        1.1477895578
 N          3.1307527295       -0.1658533956        1.2981099805
 S          2.2419271267        1.2615207525        1.3696454632
 O          2.8458698350        2.0123569415        2.4538475348
 O          0.8275032372        1.0063550295        1.4843453424
 C          2.6585521854        2.0716193865       -0.1613865651
 C          1.8480159059        1.9516942771       -1.2709996455
 C          2.2307143949        2.5763347502       -2.4489249542
 C          3.4088650535        3.3039974627       -2.4995378224
 C          4.2126220331        3.4163455020       -1.3747666520
 C          3.8361612740        2.7955226088       -0.1957166134
 H          4.4229558237        2.8677235682        0.7050498269
 H          5.1284694020        3.9838779538       -1.4139523707
 H          3.7002262428        3.7860647151       -3.4194799314
 H          1.6014666953        2.4828473308       -3.3198521845
 H          0.9365735970        1.3765596452       -1.2169731669
 H          3.8745266793       -0.1489673355        1.9808826707
 H          3.8181828236       -2.4112758767        2.5402009861
 H          2.7134765380       -4.5981239184        2.2650297214
 H          0.7435482287       -4.8165649792        0.8014277806
 C         -0.4443043347       -2.8858296285       -0.7057030358
 H         -0.9519719730       -3.8241966100       -0.4411360878
 C         -0.0704239043       -2.9431351148       -2.1730216758
 C          0.3780352784       -4.2476534128       -2.7571883884
 C         -0.9581201927       -3.6793951646       -3.1286475075
 H         -1.0936455332       -3.2741951929       -4.1198680467
 H         -1.8430924118       -4.1506220672       -2.7256609087
 H          0.3976750399       -5.1091422840       -2.1070402101
 H          1.1649899285       -4.2358330497       -3.4952908782
 H          0.4044450540       -2.0400730132       -2.5312215839
 O         -0.5969506799       -0.1244847166       -1.8239073302
