  62
        -98.94122212
 C         -2.1548543239       -0.7855424966       -0.3462177312
 C         -3.1256653166       -0.6308709809        0.6793057415
 C         -3.7121378084        0.7054000699        0.8338738582
 C         -3.2848583352        1.7029716146        0.0390781737
 C         -3.8187714499        3.1053087522        0.0559427392
 C         -4.9818959672        3.2709042658       -0.9322147117
 C         -6.0540119260        2.1881172410       -0.8100924142
 H         -6.8380371751        2.4240404338       -1.5327771713
 H         -5.6245004614        1.2274722191       -1.1032494835
 C         -6.6704266085        2.0604930097        0.5899424113
 H         -6.4676698708        2.9628328719        1.1678593049
 H         -7.7544747419        1.9768168180        0.4888317202
 C         -6.2017153846        0.8373181454        1.3802933378
 H         -6.3147044513       -0.0602510264        0.7671899480
 H         -6.8543136376        0.7239815738        2.2499344270
 C         -4.7582597156        0.8885302087        1.8972484424
 H         -4.5940595721        1.8213245660        2.4408504203
 H         -4.6241722730        0.0568789315        2.5951291425
 H         -5.4323747813        4.2521786237       -0.7726053340
 H         -4.5796678372        3.2421093347       -1.9474533398
 H         -4.1463369937        3.3500129808        1.0646013843
 H         -3.0112093315        3.7826568400       -0.2273718437
 O         -2.3367670152        1.5277178325       -0.9134777794
 C         -1.7511024711        0.2902235056       -1.1371236188
 O         -0.9091007834        0.3063022082       -2.0586137075
 H          0.7315464701       -0.8767357859       -1.1653495231
 C          0.8641105098       -1.5023480549       -0.2949149677
 C         -0.2092060582       -2.2432087828        0.1793385916
 C         -0.0270324326       -3.0187533971        1.3182017601
 C          1.1980235196       -3.0501276782        1.9619922440
 C          2.2641519429       -2.3063873388        1.4882670005
 C          2.0873965088       -1.5204535586        0.3574615343
 N          3.1646236574       -0.7378679548       -0.1290567346
 S          3.6025065749        0.5596688859        0.8647583376
 O          3.9151867371        0.0484722027        2.1747546113
 O          2.5943350229        1.5989651039        0.8101238206
 C          5.0926399107        1.1045370830        0.0544756130
 C          5.0457535579        2.1852607675       -0.8042355480
 C          6.2067833016        2.5767617028       -1.4526778040
 C          7.3865037792        1.8814928017       -1.2349702287
 C          7.4169341565        0.7970028442       -0.3707017541
 C          6.2601589974        0.4014685432        0.2812788326
 H          6.2369711076       -0.4293791306        0.9664859668
 H          8.3366925961        0.2601070505       -0.2035938157
 H          8.2879741390        2.1884189279       -1.7413646757
 H          6.1856391397        3.4205133144       -2.1236614973
 H          4.1073162142        2.6998424373       -0.9381661534
 H          2.9311222835       -0.3479863955       -1.0349669558
 H          3.2152662156       -2.3043212712        1.9940128985
 H          1.3234551376       -3.6576979855        2.8454719018
 H         -0.8609060423       -3.5836536829        1.7093959273
 C         -1.5534174635       -2.1733555023       -0.5058958407
 H         -2.2360193945       -2.8437392472        0.0334577863
 C         -1.4652373639       -2.6360155808       -1.9467425613
 C         -1.3248772798       -4.1009156624       -2.2286488436
 C         -2.6092332465       -3.3963695101       -2.5444327461
 H         -2.8613303882       -3.2169289898       -3.5787700146
 H         -3.4651500357       -3.5888461711       -1.9140354659
 H         -1.3094235299       -4.7720286413       -1.3833235531
 H         -0.6921181367       -4.4087083288       -3.0466518106
 H         -0.9385793581       -1.9451421869       -2.5917384803
 O         -3.4891196871       -1.5764172989        1.4288269506
