  62
        -98.94834470
 C          0.7997688599        1.2489916288        0.0546139028
 C          1.6016648910        0.7940391933        1.1271222435
 C          2.4382249734       -0.3777184609        0.8447711613
 C          2.3824330652       -0.9611806414       -0.3662799177
 C          3.2111285079       -2.1313031722       -0.8232729800
 C          4.6178444662       -1.7462321933       -1.3042085697
 C          5.6042034952       -1.3523103148       -0.2040927754
 H          5.6143104207       -2.1224995603        0.5677575032
 H          6.5975465435       -1.3325730064       -0.6568752433
 C          5.3289404225        0.0155621616        0.4356382155
 H          4.6652814719        0.5946775113       -0.2105787217
 H          6.2638657311        0.5745154547        0.5178330622
 C          4.7175823804       -0.0516594089        1.8350530774
 H          4.5270585662        0.9690610433        2.1763736690
 H          5.4287187315       -0.5099576334        2.5261193949
 C          3.3961035160       -0.8279326970        1.9062663450
 H          3.5827115105       -1.8983479412        1.8218967314
 H          2.9328813047       -0.6303720133        2.8766419677
 H          5.0269787133       -2.6100267668       -1.8331751085
 H          4.5290969977       -0.9280519041       -2.0223121373
 H          3.2885712890       -2.8649771535       -0.0205685488
 H          2.6773881862       -2.5797404511       -1.6624539281
 O          1.5381968956       -0.5398771227       -1.3443936375
 C          0.7352386786        0.5767179247       -1.1657510637
 O          0.0244425788        0.8609401316       -2.1471774017
 O          1.6283737523        1.3488832880        2.2596673179
 C         -0.0223696005        2.5112665424        0.2316688685
 C         -1.4797414705        2.2508306291       -0.0505175934
 C         -2.2720744228        3.1012606240       -0.8112353952
 C         -3.6065168820        2.8065356589       -1.0294466659
 C         -4.1757509115        1.6635863613       -0.5003177348
 C         -3.3929603604        0.8117962514        0.2724932031
 C         -2.0599918800        1.1135858199        0.4975885878
 H         -1.4625674955        0.4513874928        1.1080396435
 N         -3.9463499716       -0.3486547829        0.8307867692
 S         -3.0261456534       -1.6725779646        1.2255392052
 O         -3.9962013693       -2.7367514903        1.3865284863
 O         -2.2146495027       -1.3977683946        2.3863275745
 C         -1.9787554941       -2.0745049992       -0.1633335367
 C         -0.8849822612       -2.8734791095        0.1042302099
 C         -0.0968071117       -3.3124803722       -0.9457434928
 C         -0.4029805305       -2.9305832237       -2.2423846352
 C         -1.4955449591       -2.1179855267       -2.4944985665
 C         -2.3015477285       -1.6944121282       -1.4495737652
 H         -3.1550874050       -1.0632950774       -1.6352083718
 H         -1.7225179859       -1.8062251877       -3.5009807413
 H          0.2159840848       -3.2624436420       -3.0611291543
 H          0.7512948415       -3.9476215851       -0.7463928341
 H         -0.6713362029       -3.1303561296        1.1300012260
 H         -4.8702151105       -0.5976873718        0.5113350858
 H         -5.2140156450        1.4286654430       -0.6776446348
 H         -4.2100982032        3.4727080210       -1.6267339148
 H         -1.8445442765        3.9931891352       -1.2382711730
 H          0.0761707994        2.7786380063        1.2950133763
 C          0.5663844837        3.6275541827       -0.6078603232
 C          0.4597050201        5.0536472787       -0.1595235293
 C          1.7798468549        4.3471938979       -0.1031719993
 H          2.5473866425        4.6254418747       -0.8098332186
 H          2.1632895032        4.0515745513        0.8627010505
 H          0.3233813989        5.8210685850       -0.9065286068
 H         -0.0496403006        5.2481089256        0.7722283553
 H          0.5161827619        3.4172582746       -1.6706098608
