  62
        -98.94702508
 C         -2.2077038298       -0.7468513610       -0.4951594842
 C         -1.4726899569        0.2644100478       -1.1587588128
 C         -1.9222582908        1.6462605086       -0.9328128477
 C         -2.9629368283        1.8822610739       -0.1157119217
 C         -3.4898024475        3.2413696199        0.2411688263
 C         -2.8195718692        3.7889466982        1.5084074123
 C         -1.2925502321        3.7094632364        1.4901514992
 H         -0.9325134705        4.1709517293        2.4129033943
 H         -0.9783986711        2.6627192816        1.5190893683
 C         -0.6326724726        4.3949538695        0.2856428232
 H          0.2212300090        4.9754621674        0.6414834212
 H         -1.3323438605        5.0932167286       -0.1765004154
 C         -0.1014839460        3.4231631855       -0.7696546808
 H          0.5644479169        3.9742653261       -1.4396405109
 H          0.4913379969        2.6513709286       -0.2721190514
 C         -1.1674551556        2.7393803978       -1.6360987913
 H         -1.8559406812        3.4886108098       -2.0331744298
 H         -0.6582244856        2.2611130273       -2.4777841775
 H         -3.1281786822        4.8282661414        1.6386321566
 H         -3.1802610670        3.2171489151        2.3667708358
 H         -4.5636235969        3.1564848479        0.4181205017
 H         -3.3215570470        3.9203049181       -0.5926345486
 O         -3.6433740913        0.8897757094        0.5129805572
 C         -3.2764161310       -0.4338845778        0.3504697871
 O         -3.9815766573       -1.2392948142        0.9932798297
 O         -0.4902158309        0.0525091177       -1.9187171737
 C         -1.8754388324       -2.2300954987       -0.5794486828
 C         -0.8388723567       -2.5783726547        0.4632483739
 C         -1.0841497416       -3.5621563411        1.4131397383
 C         -0.1499749586       -3.8363023914        2.3963962781
 C          1.0260842356       -3.1129847930        2.4676432996
 C          1.2816450519       -2.1257688767        1.5208786436
 C          0.3665035353       -1.8916030526        0.5064604506
 H          0.5741682082       -1.1340011539       -0.2292747482
 N          2.4595703891       -1.3676265704        1.5812480703
 S          2.4538602940        0.2948346703        1.3113305439
 O          3.2995310727        0.8373039572        2.3575182973
 O          1.1121369516        0.8169184263        1.2463503305
 C          3.3211412596        0.4556202422       -0.2363183412
 C          4.7028233111        0.4327495447       -0.1845179995
 C          5.4245111228        0.5275990086       -1.3621276796
 C          4.7555876308        0.6434718549       -2.5717304480
 C          3.3707499353        0.6662228673       -2.6069184707
 C          2.6408918161        0.5700890127       -1.4308655512
 H          1.5616532427        0.5800853802       -1.4464942159
 H          2.8442064742        0.7544219621       -3.5438865154
 H          5.3152644937        0.7172417404       -3.4909524782
 H          6.5021589261        0.5110711476       -1.3344199810
 H          5.1806479092        0.3560932360        0.7781256836
 H          3.0486745395       -1.5886711616        2.3711105158
 H          1.7410966273       -3.3026843953        3.2543262015
 H         -0.3498431811       -4.6038480147        3.1288722133
 H         -2.0221347101       -4.0973605965        1.3911120951
 H         -2.8024124642       -2.7576346325       -0.3143641327
 C         -1.4402425787       -2.6937657209       -1.9550912718
 C         -1.6228260734       -4.1338524811       -2.3253048789
 C         -2.4798950215       -3.0814410899       -2.9611304757
 H         -2.3114287874       -2.8301005800       -3.9973041131
 H         -3.5155002785       -3.0156822777       -2.6595971682
 H         -0.8631644652       -4.6101132236       -2.9256427714
 H         -2.0800083564       -4.7855457206       -1.5961041437
 H         -0.5587382815       -2.1863843839       -2.3223151057
