  62
        -98.93630558
 C         -2.0301087094       -1.4978462412        0.1320923689
 C         -1.7064875099       -0.2335721210       -0.4139732211
 C         -2.8412701203        0.6610949084       -0.7099460213
 C         -4.0924101101        0.2634962779       -0.4259800414
 C         -5.3889018905        0.9927254672       -0.6737301215
 C         -5.4290184112        2.4930788572       -0.3503991015
 C         -4.5419152515        2.9299050277        0.8247441985
 H         -5.1410916718        3.5212382874        1.5196402685
 H         -4.1823641411        2.0547269879        1.3686037586
 C         -3.3505185719        3.7853905382        0.3872734086
 H         -2.9923631822        4.3543297684        1.2485541786
 H         -3.6935753321        4.5047887681       -0.3595419514
 C         -2.1565259315        3.0136732688       -0.1741014413
 H         -1.4448361518        3.7432013991       -0.5687550112
 H         -1.6541928613        2.4692567390        0.6303154488
 C         -2.4837440609        2.0021619986       -1.2841629213
 H         -3.2641702010        2.3770812882       -1.9421388113
 H         -1.5763148508        1.8468940890       -1.8747816912
 H         -6.4694115113        2.7402293868       -0.1325906116
 H         -5.1509836014        3.0636220873       -1.2355560115
 H         -5.6679360503        0.8444937971       -1.7210923415
 H         -6.1300336503        0.4670625669       -0.0668082915
 O         -4.3564606096       -0.9485245022        0.1401998786
 C         -3.3474625592       -1.8480930118        0.4359203888
 O         -3.7433774688       -2.9037931319        0.9687740887
 H          1.6831127910       -2.2313582994       -0.3524101308
 C          1.4816059907       -1.8240127895        0.6239873792
 C          0.2043934007       -1.8630110301        1.1614986691
 C         -0.0126708997       -1.2842436701        2.4100099690
 C          1.0191633000       -0.6796738296        3.1006820491
 C          2.2924503500       -0.6403078391        2.5596100492
 C          2.5205243604       -1.2135309390        1.3149183292
 N          3.8122789704       -1.2120883284        0.7514679393
 S          4.0746923202       -0.4575548783       -0.7217773007
 O          3.2392939006       -1.0476428387       -1.7332234107
 O          5.5033169703       -0.5606798076       -0.9343806105
 C          3.6489074894        1.2502128615       -0.4273702407
 C          4.6719899189        2.1508491920       -0.1983294307
 C          4.3564517183        3.4648606619        0.1051303493
 C          3.0270678981        3.8517627712        0.1864053291
 C          2.0142246686        2.9336510207       -0.0416011709
 C          2.3202344392        1.6169577609       -0.3525477409
 H          1.5427621596        0.8922107105       -0.5347186809
 H          0.9779842284        3.2252224603        0.0228875490
 H          2.7783480376        4.8732408211        0.4282378891
 H          5.1442416179        4.1797705722        0.2805975293
 H          5.6901381391        1.8038461325       -0.2720121006
 H          4.5301811903       -0.9123057780        1.3971503694
 H          3.1030004298       -0.1703642087        3.0962895293
 H          0.8325799597       -0.2340781997        4.0661446991
 H         -1.0095610397       -1.3139565706        2.8299172089
 C         -0.9602165489       -2.5231276806        0.4646747890
 H         -1.4368338987       -3.2062761108        1.1878153989
 C         -0.5348865884       -3.3775461305       -0.7201764410
 C         -1.5007549482       -3.7251278409       -1.8124111310
 C         -0.3473198186       -2.8119498904       -2.0940396810
 H          0.4741901717       -3.1792127400       -2.6921385809
 H         -0.5417379790       -1.7606567805       -2.2349121110
 H         -1.4785269376       -4.7258909609       -2.2168736110
 H         -2.4919065684       -3.2980281314       -1.7598504711
 H          0.1522634019       -4.1643056301       -0.4224049309
 O         -0.5332206601        0.1460501095       -0.6573889611
