  62
        -98.94461313
 C         -2.6584693462       -1.2949425475        0.1146193804
 C         -2.5708634168       -0.2986583461       -0.8881106795
 C         -3.5326430338        0.8059399231       -0.7747361353
 C         -4.4401846310        0.8104518245        0.2179399100
 C         -5.5010221207        1.8524551435        0.4467604437
 C         -5.0127184593        3.0787964165        1.2297595263
 C         -4.0899920409        4.0200800180        0.4545286882
 H         -4.5568656286        4.2863156923       -0.4942015698
 H         -3.9992595821        4.9360039650        1.0415932373
 C         -2.6840072992        3.4591677209        0.1978282462
 H         -2.4957486357        2.6178630243        0.8693284060
 H         -1.9363398320        4.2212520314        0.4295485226
 C         -2.4332432143        3.0066698854       -1.2408292614
 H         -1.4208305038        2.5958742617       -1.2963968451
 H         -2.4813001479        3.8691561372       -1.9097257227
 C         -3.4129504814        1.9397698989       -1.7476313578
 H         -4.3890582889        2.3860235583       -1.9366972420
 H         -3.0238150688        1.5355947957       -2.6854029055
 H         -5.8965616858        3.6427415271        1.5362820796
 H         -4.5054328864        2.7366211044        2.1346659957
 H         -5.9139761243        2.1712757304       -0.5105620216
 H         -6.2917694863        1.3685601556        1.0239400556
 O         -4.5086616373       -0.1792882801        1.1469697355
 C         -3.6061725735       -1.2285661857        1.1397084138
 O         -3.7533777862       -2.0354265683        2.0791679714
 H          0.3494632901       -1.6565942202       -1.4842470479
 C          0.5884560750       -1.5349642686       -0.4398545921
 C         -0.3279058293       -1.9207648829        0.5256256910
 C         -0.0093982404       -1.7186279880        1.8656983537
 C          1.1973992135       -1.1487510457        2.2254588082
 C          2.1066727992       -0.7568398805        1.2577777906
 C          1.7899486225       -0.9376909717       -0.0811957052
 N          2.6975980420       -0.5277374763       -1.0732049303
 S          3.3678992775        1.0061066737       -0.9441392429
 O          2.5045664388        1.9141569738       -0.2250493820
 O          3.7175361291        1.3830374149       -2.2966312090
 C          4.8664957050        0.7258259434       -0.0220870699
 C          5.7408245628       -0.2400951501       -0.4807765147
 C          6.9154659554       -0.4661787381        0.2184551332
 C          7.1965578973        0.2752834595        1.3564479868
 C          6.3106048099        1.2439852976        1.8020564093
 C          5.1330459669        1.4742484050        1.1074522644
 H          4.4119797932        2.2129261350        1.4200743011
 H          6.5305423419        1.8198830375        2.6866372042
 H          8.1113910011        0.0972298088        1.8992755888
 H          7.6068709410       -1.2186874488       -0.1249859350
 H          5.4861924170       -0.7919808193       -1.3700228957
 H          2.3583454342       -0.6864702541       -2.0115340864
 H          3.0433449593       -0.2986312785        1.5304734738
 H          1.4322891110       -1.0027439349        3.2689236902
 H         -0.7305715612       -2.0000585854        2.6207261990
 C         -1.6878955144       -2.4658004162        0.1628815269
 H         -2.0295477632       -3.1047334485        0.9876928343
 C         -1.7035695832       -3.2753998653       -1.1168290086
 C         -1.0749625089       -4.6354842438       -1.1272473057
 C         -2.5654519590       -4.4978859533       -1.1970639381
 H         -3.0620091261       -4.7167128834       -2.1305528593
 H         -3.1454532815       -4.7582209903       -0.3236526410
 H         -0.6416200548       -4.9895881918       -0.2041846639
 H         -0.5460122564       -4.9529236601       -2.0127941719
 H         -1.6229766317       -2.6716106456       -2.0117432503
 O         -1.7474404591       -0.3196996752       -1.8411032766
