  62
        -98.94196136
 C         -1.1863485490       -1.5840945131        0.5135753855
 C         -2.0970381455       -1.1727532182       -0.4881211291
 C         -3.0961826095       -0.1673283072       -0.0874730272
 C         -3.1046245856        0.2928712475        1.1750125678
 C         -4.0477202213        1.2848241806        1.8087027794
 C         -4.4087453324        2.5385548772        1.0014152870
 C         -3.2923815645        3.0798414611        0.0959857144
 H         -3.1759053749        4.1503017012        0.2786574765
 H         -2.3350462858        2.6115386354        0.3363860691
 C         -3.5878395317        2.8910966532       -1.3938070852
 H         -4.6327092992        3.1498429923       -1.5823205598
 H         -2.9668660890        3.5893353162       -1.9605419604
 C         -3.3086918787        1.4932643023       -1.9428669961
 H         -3.6332662723        1.4690166087       -2.9862818289
 H         -2.2298123202        1.3106119242       -1.9370664452
 C         -3.9856380582        0.3377565347       -1.1860480822
 H         -4.9650756600        0.6292471123       -0.8145005334
 H         -4.1086771208       -0.4956092012       -1.8831485549
 H         -4.6922411824        3.3058575537        1.7241285857
 H         -5.2904263926        2.3395430029        0.3933205946
 H         -4.9675382341        0.7563501808        2.0771003135
 H         -3.5615523697        1.5809874228        2.7415126529
 O         -2.2198742901       -0.1471603364        2.1142357567
 C         -1.2220388981       -1.0542767762        1.8006816196
 O         -0.4406541340       -1.3058418327        2.7422816953
 H          0.4266534742        0.0645885965       -0.2290291882
 C          0.9780426094       -0.5434494583       -0.9278769238
 C          0.8283581882       -1.9219221962       -0.8998316306
 C          1.5266938265       -2.6790019079       -1.8330547723
 C          2.3359087898       -2.0591821627       -2.7698143574
 C          2.4793329796       -0.6831486997       -2.7927517419
 C          1.7863007616        0.0823175995       -1.8621450154
 N          1.8770847141        1.4811630327       -1.8492002549
 S          1.7484703744        2.3267602614       -0.4145433058
 O          0.3923488215        2.3071569446        0.0726135387
 O          2.2866421443        3.6331413444       -0.7293526153
 C          2.8502238221        1.4830334098        0.7063170996
 C          4.2057297525        1.5873645241        0.4560458091
 C          5.0956258285        0.9086953791        1.2711132164
 C          4.6179744466        0.1323272474        2.3168135339
 C          3.2567123135        0.0418475868        2.5589151137
 C          2.3615588070        0.7237503229        1.7488306271
 H          1.2983417692        0.6623585015        1.9224991681
 H          2.8719927544       -0.5599464159        3.3671283593
 H          5.3087649587       -0.4029843907        2.9488761070
 H          6.1554549981        0.9829579634        1.0885032883
 H          4.5375294531        2.2094827712       -0.3592488824
 H          2.5619666806        1.8803395192       -2.4728969200
 H          3.1076324939       -0.2047683168       -3.5279752069
 H          2.8667246958       -2.6581207264       -3.4940781829
 H          1.4295790478       -3.7524622826       -1.8319281241
 C         -0.0548317005       -2.5315742342        0.1653201721
 H          0.5477438294       -2.6353647283        1.0808722020
 C         -0.5921466927       -3.8950372580       -0.2207677669
 C          0.1733035496       -5.1379496643        0.1182670852
 C         -1.0859320252       -4.8080327707        0.8599593380
 H         -1.9696637855       -5.3991402423        0.6726567994
 H         -1.0044686416       -4.4566495715        1.8786190701
 H          0.1526103865       -5.9617785195       -0.5792384011
 H          1.1102823724       -5.0236037944        0.6422712414
 H         -1.1495813033       -3.8716735227       -1.1498053756
 O         -2.0794455677       -1.6201636655       -1.6643720295
