  62
        -98.94534443
 C         -2.3530505573       -0.4172621744        0.0970564415
 C         -1.5623077151        0.2549432317       -0.8615745017
 C         -1.6306857400        1.7266730511       -0.8594084328
 C         -2.3843283021        2.3465892776        0.0651101623
 C         -2.6768289876        3.8179235219        0.2391042072
 C         -1.5644212053        4.8262259299       -0.0583575292
 C         -0.1672063941        4.4016508794        0.4158283185
 H          0.2629954404        5.2009455128        1.0225628363
 H         -0.2340867467        3.5139343195        1.0488372035
 C          0.7922503966        4.1100870092       -0.7389585746
 H          1.8172545508        4.1692061059       -0.3643978274
 H          0.6739840663        4.8772429921       -1.5078100324
 C          0.6199773428        2.7275900103       -1.3625245381
 H          0.8728848274        1.9720360695       -0.6147921543
 H          1.3375844367        2.6294805040       -2.1810968022
 C         -0.7893772869        2.4166574150       -1.8959328955
 H         -1.2738578216        3.3135435263       -2.2752009501
 H         -0.6895158874        1.7033399380       -2.7185899365
 H         -1.5337563310        5.0345275883       -1.1266468684
 H         -1.8495193706        5.7571737174        0.4355420231
 H         -3.5482180704        4.0570770137       -0.3793234836
 H         -2.9895762676        3.9214982117        1.2816520179
 O         -3.0854931916        1.6562925779        1.0119812002
 C         -3.0889792387        0.2743606269        1.0549076459
 O         -3.7768117530       -0.2134239943        1.9769974792
 H         -0.4109302169       -0.9759611913        1.6608162764
 C         -0.0842606835       -1.8376461856        1.0966138046
 C         -0.9716030356       -2.4777887000        0.2412758071
 C         -0.5269766100       -3.5920186363       -0.4602646304
 C          0.7791556622       -4.0307567677       -0.3267344543
 C          1.6732795358       -3.3572682000        0.4853703636
 C          1.2349738398       -2.2471885662        1.1977666070
 N          2.1100967235       -1.5045810099        2.0188878724
 S          2.3882147286        0.0879179894        1.5711180760
 O          3.3594537712        0.5809529824        2.5246556763
 O          1.1415101636        0.8047425154        1.5062022627
 C          3.1567087922       -0.0352048141       -0.0354416849
 C          4.5271406284        0.1256645337       -0.1156460037
 C          5.1533106206       -0.0294949948       -1.3412019560
 C          4.4022248181       -0.3530167990       -2.4613551647
 C          3.0295874909       -0.5163364919       -2.3624490246
 C          2.3935907822       -0.3587269188       -1.1399015352
 H          1.3238777058       -0.4732223680       -1.0548891781
 H          2.4367575711       -0.7666257849       -3.2275028261
 H          4.8879716101       -0.4775819037       -3.4163565996
 H          6.2208839983        0.0998093425       -1.4181537895
 H          5.0676135473        0.3775003324        0.7825897728
 H          2.9994972993       -1.9591804583        2.1769329944
 H          2.6998073684       -3.6814711227        0.5679762409
 H          1.1100844163       -4.8974328892       -0.8781409315
 H         -1.2031278601       -4.1143521769       -1.1171414794
 C         -2.3754391214       -1.9346085403        0.1322467649
 H         -2.9237651978       -2.2098373348        1.0457247318
 C         -3.1299963253       -2.4656971200       -1.0704695134
 C         -3.9140668681       -3.7390816458       -0.9746760161
 C         -4.6274935871       -2.4240472118       -1.0575422798
 H         -5.1450115313       -2.1713473211       -1.9707428208
 H         -5.1021885558       -2.0384575283       -0.1666246273
 H         -3.9166645860       -4.2555151641       -0.0266411368
 H         -3.9469372378       -4.3910880473       -1.8345317142
 H         -2.6318555429       -2.2374024915       -2.0058390211
 O         -0.8466614049       -0.3492770651       -1.7035731321
