  62
        -98.93439046
 C          1.8495715000        1.0579875901       -0.1724272190
 C          2.2924348397       -0.1887821796       -0.6737448501
 C          3.7536268697       -0.4043357199       -0.6861082502
 C          4.5678128099        0.5661415095       -0.2388529192
 C          6.0661360899        0.5234469290       -0.1218122891
 C          6.4859483696        0.0834890976        1.2909019906
 C          6.5826608192       -1.4283934326        1.4920641292
 H          7.4564235592       -1.8058806724        0.9567025489
 H          6.7503846191       -1.6044491637        2.5570970490
 C          5.3554340891       -2.2295139119        1.0486840983
 H          4.4450284592       -1.7170759920        1.3650290787
 H          5.3795227888       -3.1911852124        1.5650052974
 C          5.3138936892       -2.4817096005       -0.4659728719
 H          5.1535320689       -3.5460855903       -0.6499730930
 H          6.2865111193       -2.2377776403       -0.8934132116
 C          4.2118754594       -1.7301819895       -1.2292301114
 H          4.5281565796       -1.5924868486       -2.2688029712
 H          3.3057461293       -2.3439088093       -1.2578073620
 H          7.4615347197        0.5178723571        1.5182407411
 H          5.7679381896        0.5045787671        1.9993149409
 H          6.4937663298       -0.1257778404       -0.8800173796
 H          6.4215428401        1.5424997791       -0.2886055781
 O          4.0987438101        1.7499806391        0.2431342219
 C          2.7444342802        2.0176966994        0.3074651420
 O          2.4630326804        3.1238340590        0.8094120830
 O          1.5210757996       -1.0929753990       -1.0870936910
 C          0.3737278601        1.4053723003       -0.0755636188
 C         -0.4016767903        0.2315073000        0.4705517000
 C         -0.0669210305       -0.2551621812        1.7323911296
 C         -0.7333195808       -1.3359206816        2.2740865185
 C         -1.7670536609       -1.9407722907        1.5798038478
 C         -2.1136911407       -1.4594465694        0.3244414682
 C         -1.4331212203       -0.3797199191       -0.2231497607
 H         -1.7018343302       -0.0550741681       -1.2137753904
 N         -3.1587054907       -2.0519389185       -0.4062886324
 S         -4.3254920804       -1.0710662076       -1.0924893816
 O         -5.4457717606       -1.9516246871       -1.3408756826
 O         -3.7952845601       -0.3787456266       -2.2383189209
 C         -4.7319425403        0.0874328913        0.2013124294
 C         -5.5500928705       -0.3418233394        1.2282813589
 C         -5.8135931704        0.5189931597        2.2809296397
 C         -5.2483023901        1.7852610895        2.2943318709
 C         -4.4305620499        2.2022268003        1.2556292814
 C         -4.1682664700        1.3467860112        0.1971817706
 H         -3.5432391598        1.6358620418       -0.6317129590
 H         -3.9922435796        3.1874639702        1.2663989524
 H         -5.4478942100        2.4533449488        3.1172366115
 H         -6.4539834006        0.2007939591        3.0876984793
 H         -5.9766130607       -1.3304370593        1.1758010379
 H         -3.5841597010       -2.8456351288        0.0503615168
 H         -2.2893537912       -2.7871711709        1.9995243270
 H         -0.4519191210       -1.7088864026        3.2473691082
 H          0.7399251495        0.2190442381        2.2754153201
 H          0.3240286602        2.2152506197        0.6714879319
 C         -0.2154341797        1.9665982917       -1.3609015484
 C          0.6354315206        2.6846697824       -2.3642140176
 C          0.0473971003        1.3485566829       -2.6997765589
 H         -0.7656905496        1.3029373437       -3.4104943191
 H          0.6998015201        0.4903193227       -2.7323595497
 H          0.2301379709        3.5628952830       -2.8440459168
 H          1.6971511706        2.7429557420       -2.1725385975
 H         -1.2099059596        2.3747847318       -1.2060028581
