  62
        -98.94394178
 C          1.7762694328        0.4809673436       -0.4070479706
 C          3.0191942228        1.0493167362       -0.7746247661
 C          4.1366476967        0.7912694491        0.1402414917
 C          3.9300364844        0.0744609152        1.2601801951
 C          4.9626171564       -0.2513653791        2.3049540075
 C          5.8206516443       -1.4796396768        1.9719967773
 C          6.8499908284       -1.2721550660        0.8602747357
 H          7.4487816354       -0.3879820147        1.0814296844
 H          7.5213656375       -2.1329743281        0.8808753679
 C          6.2475845960       -1.1500383000       -0.5464381439
 H          5.2238379286       -1.5310585133       -0.5389304416
 H          6.8155874385       -1.7730425230       -1.2410242415
 C          6.2424582815        0.2698977887       -1.1127987403
 H          5.7638036320        0.2453668598       -2.0951339492
 H          7.2700983853        0.6144365763       -1.2483588554
 C          5.4949754204        1.2927122474       -0.2470831565
 H          6.0802917090        1.5337954739        0.6401647505
 H          5.3580991826        2.2043196039       -0.8342474639
 H          6.3537268940       -1.7610995838        2.8830856227
 H          5.1584074761       -2.3066057158        1.7057818192
 H          5.6084098949        0.6125384365        2.4651953361
 H          4.4166469431       -0.4530342838        3.2291872039
 O          2.7142205918       -0.4358060068        1.5897348328
 C          1.6135708809       -0.2651497221        0.7606792775
 O          0.5738453135       -0.8098943297        1.1727563306
 O          3.1838310782        1.7437443750       -1.8140344267
 C          0.5841332318        0.6807603140       -1.3217497561
 C         -0.5616256806        1.3593064854       -0.6113178964
 C         -0.3136544000        2.3008594881        0.3829221262
 C         -1.3525308104        2.9159469308        1.0561488924
 C         -2.6674468409        2.6195581830        0.7424698490
 C         -2.9274013797        1.7043039404       -0.2664254155
 C         -1.8819963754        1.0816131346       -0.9371422039
 H         -2.1056131026        0.3673796625       -1.7149687269
 N         -4.2731923520        1.4033220075       -0.5821137183
 S         -5.0677578969        0.4206795645        0.5211196633
 O         -6.4156838162        0.2718967030        0.0215408613
 O         -4.9271660237        0.9931759561        1.8342723412
 C         -4.2066451638       -1.1367984976        0.4070833049
 C         -4.7540719445       -2.1542579312       -0.3506161479
 C         -4.0330512501       -3.3246912454       -0.5206725836
 C         -2.7737235307       -3.4488015160        0.0483158834
 C         -2.2360106738       -2.4171994028        0.8024626245
 C         -2.9596306551       -1.2495835693        0.9882862602
 H         -2.5576545598       -0.4362723014        1.5704931805
 H         -1.2475956574       -2.4865900864        1.2287536929
 H         -2.2051160870       -4.3541360655       -0.0974480128
 H         -4.4482232924       -4.1318386535       -1.1028205893
 H         -5.7313833259       -2.0099181326       -0.7825163957
 H         -4.3851343203        1.0064666330       -1.5056393386
 H         -3.4904103627        3.0706308206        1.2719445329
 H         -1.1365028089        3.6328624144        1.8340781719
 H          0.7107402955        2.5391371317        0.6347851493
 H          0.9392401370        1.3539163124       -2.1173941118
 C          0.1825400042       -0.6426276923       -1.9451947400
 C         -0.3261442248       -0.7049609454       -3.3539315628
 C          1.0420736860       -1.2212143655       -3.0274547407
 H          1.2113457070       -2.2873033346       -3.0393112078
 H          1.8966319982       -0.6402784294       -3.3429851869
 H         -1.0980798041       -1.4216967389       -3.5918639714
 H         -0.3955485798        0.2209781252       -3.9051208979
 H         -0.2385369419       -1.3293800637       -1.2190881765
