  62
        -98.94559925
 C          2.3430666439        0.1057297329        0.1236507804
 C          1.5440030821       -0.4648200601       -0.8914931344
 C          1.3181445095       -1.9190527684       -0.8195039689
 C          1.7944889812       -2.6057456157        0.2354975185
 C          1.7428296539       -4.0809389234        0.5741705704
 C          0.8323382818       -5.0298930728       -0.1993233299
 C         -0.6605703343       -4.8154054611        0.0432147225
 H         -1.2129839163       -5.4960515386       -0.6088805264
 H         -0.8888229344       -5.0855711534        1.0774270163
 C         -1.1668645993       -3.3932367356       -0.1852295373
 H         -2.2454805630       -3.3875078623        0.0007206131
 H         -0.7248674252       -2.7109051320        0.5445206280
 C         -0.9347810210       -2.8401614377       -1.5892975981
 H         -1.5063291966       -1.9122555748       -1.6666970760
 H         -1.3288438559       -3.5403368735       -2.3290159964
 C          0.5277130165       -2.5214402997       -1.9470763988
 H          1.0387558746       -3.4023721217       -2.3309128104
 H          0.5213768072       -1.7727599577       -2.7448010893
 H          1.0555243507       -4.9865448873       -1.2611396341
 H          1.0787904210       -6.0405793837        0.1375059000
 H          2.7746442130       -4.4401410960        0.4873882484
 H          1.4883980364       -4.1302374356        1.6380807089
 O          2.5102720718       -1.9981514876        1.2277525969
 C          2.8036329868       -0.6480384077        1.1996206199
 O          3.4723634708       -0.2430405350        2.1741291524
 H          0.5433987298        1.0771256118        1.6630519053
 C          0.3480617171        1.9237516335        1.0211003523
 C          1.3307076522        2.3594387242        0.1416099696
 C          1.0604305735        3.4615838883       -0.6596123777
 C         -0.1743282646        4.0853079605       -0.5982312872
 C         -1.1692057127        3.6114109405        0.2378404551
 C         -0.9036232598        2.5155401509        1.0508770487
 N         -1.8858497234        1.9687942418        1.9029364250
 S         -2.3373759309        0.3774399344        1.6226939606
 O         -3.3935053653        0.1160855698        2.5774476993
 O         -1.1860726747       -0.4834012247        1.6943423938
 C         -3.0293309654        0.4016457394       -0.0219620248
 C         -2.1914305500        0.5311346714       -1.1118628661
 C         -2.7535568258        0.6250281373       -2.3767848030
 C         -4.1301124828        0.5856377318       -2.5315960666
 C         -4.9574648378        0.4537018367       -1.4261427315
 C         -4.4042186990        0.3677225303       -0.1591641981
 H         -5.0060712227        0.2667246996        0.7295715942
 H         -6.0282829434        0.4211044040       -1.5468506140
 H         -4.5586516605        0.6572644819       -3.5187710909
 H         -2.0994843291        0.7249335047       -3.2283170317
 H         -1.1210843323        0.5507304211       -0.9781256967
 H         -2.7174785341        2.5382206676        1.9839525210
 H         -2.1416047994        4.0797760707        0.2621217338
 H         -0.3715986537        4.9401191652       -1.2268473333
 H          1.8136853006        3.8275342726       -1.3379395824
 C          2.6333119435        1.5965663016        0.1145703914
 H          3.1735354504        1.8058369487        1.0498968415
 C          3.5216121846        1.9569162997       -1.0578369374
 C          4.4693082007        3.1135994061       -0.9608489933
 C          4.9953177880        1.7106084151       -0.9490270299
 H          5.5236293509        1.3475478607       -1.8177012510
 H          5.3610690612        1.3062907743       -0.0159887725
 H          4.6418216566        3.7149821157       -1.8406198055
 H          4.4892123164        3.6679900927       -0.0347008366
 H          3.0504627181        1.7566741177       -2.0130985109
 O          1.0461144681        0.2088353088       -1.8326702928
