  62
        -98.94062216
 C         -1.6411951572       -1.3778897004        0.6847856176
 C         -1.6777039923       -0.0242825047        1.1106929595
 C         -2.9460489820        0.6848838600        0.9174311140
 C         -4.0003217047        0.0300635218        0.3992843472
 C         -5.3705799720        0.6051901447        0.1628480781
 C         -5.5074983131        1.3635199173       -1.1646602104
 C         -4.7962074688        2.7163000353       -1.2179698211
 H         -5.1530959444        3.2297813250       -2.1130188230
 H         -5.0953126203        3.3163809308       -0.3580600505
 C         -3.2648489401        2.6240460287       -1.2785950449
 H         -2.9721790503        1.6130849269       -1.5716703284
 H         -2.8899466028        3.3004252717       -2.0498384488
 C         -2.5533286650        2.9851992083        0.0255531729
 H         -2.7215237237        4.0399338786        0.2537238529
 H         -1.4809172966        2.8313926084       -0.1181736839
 C         -2.9888643435        2.1484617549        1.2352652490
 H         -2.2858868537        2.3311615147        2.0512958578
 H         -3.9873093294        2.4408042710        1.5596729111
 H         -5.1375561387        0.7253050687       -1.9705350741
 H         -6.5736508932        1.5299126878       -1.3359451546
 H         -6.0644933888       -0.2381365501        0.1505342950
 H         -5.6391228980        1.2637119543        0.9894162188
 O         -3.9382966670       -1.2771956166        0.0365658065
 C         -2.7534877008       -2.0044867552        0.1225726878
 O         -2.8512589058       -3.1635661789       -0.3197377714
 O         -0.6924125571        0.5590493591        1.6339404487
 C         -0.3045053423       -2.0816809909        0.8330162703
 C          0.5570540660       -1.7871411386       -0.3684135336
 C          0.0811796391       -1.9981678511       -1.6594881842
 C          0.8765705845       -1.7106527232       -2.7528505668
 C          2.1510552944       -1.1979583104       -2.5821204370
 C          2.6344729552       -0.9813223187       -1.2970024252
 C          1.8357405980       -1.2786694738       -0.2000526155
 H          2.2231762372       -1.1085272357        0.7924500244
 N          3.9281195000       -0.4849270932       -1.0992858378
 S          4.3063625438        0.4865718090        0.2041230672
 O          5.5576101437        1.1060841869       -0.1771654810
 O          4.3371028499       -0.2978037434        1.4129171605
 C          3.0323660183        1.7306541638        0.2928787835
 C          2.3065484085        1.8937456692        1.4535933806
 C          1.3522384370        2.8963138275        1.5135152202
 C          1.1397675980        3.7115006230        0.4138520562
 C          1.8736305900        3.5317925387       -0.7494503177
 C          2.8319417635        2.5346276944       -0.8126242281
 H          3.4311078922        2.3813267539       -1.6955143425
 H          1.7013175614        4.1668481062       -1.6037582155
 H          0.3985591411        4.4938772005        0.4643884915
 H          0.7723263399        3.0239656490        2.4125538239
 H          2.4928025777        1.2368273284        2.2876614199
 H          4.4185502326       -0.2102018655       -1.9369206828
 H          2.7696053384       -0.9712823472       -3.4368984399
 H          0.4992312151       -1.8822543068       -3.7497100091
 H         -0.9151216556       -2.3941704207       -1.7915878069
 H          0.1748874438       -1.5999642479        1.7008332818
 C         -0.4107020523       -3.5664371513        1.1449263381
 C          0.0072860172       -4.6442943134        0.1947886937
 C          0.8367311242       -4.3575896826        1.4082257544
 H          0.8376582827       -5.0706526489        2.2187480186
 H          1.7819872235       -3.8551654646        1.2617316407
 H         -0.5872824553       -5.5446665449        0.1705904471
 H          0.3978934360       -4.3563707484       -0.7683919762
 H         -1.2680569228       -3.7893009829        1.7713544133
