  62
        -98.93276233
 C         -2.3409454868       -0.8851927344        0.8317971731
 C         -3.3236279662       -0.7916652746       -0.1811227049
 C         -4.2933578975        0.3153500559       -0.0575469963
 C         -4.1719652750        1.1968808208        0.9517285947
 C         -5.0197070304        2.3866743374        1.3521696249
 C         -6.0991515009        2.9267357365        0.4182761712
 C         -5.5683455786        3.6036973370       -0.8456060936
 H         -6.4166237967        3.8355600458       -1.4931389259
 H         -5.0997314750        4.5490181316       -0.5605909695
 C         -4.5393889529        2.8039499943       -1.6408510089
 H         -4.2238255069        3.4155987545       -2.4905222710
 H         -3.6541600064        2.6287518984       -1.0259358530
 C         -5.0326356898        1.4674794474       -2.1904532430
 H         -4.2526273636        1.0729367784       -2.8475123209
 H         -5.9291956049        1.6256524054       -2.7932182853
 C         -5.3365268200        0.3912107133       -1.1355983912
 H         -6.3255042634        0.5285560435       -0.7053112305
 H         -5.3286077004       -0.5810213209       -1.6370156463
 H         -6.8045181439        2.1405935141        0.1657071317
 H         -6.6545064247        3.6785476665        0.9856093544
 H         -5.4915526049        2.1045564859        2.2998479012
 H         -4.3150071990        3.1904998478        1.5881963042
 O         -3.1715847983        1.0938183613        1.8768381073
 C         -2.2434970150        0.0723359789        1.8419284731
 O         -1.3909227352        0.1237520011        2.7524465615
 O         -3.4169634705       -1.5957828273       -1.1441396675
 C         -1.2981917256       -1.9925103972        0.8461298095
 C         -0.2619547779       -1.6970537035       -0.2119689664
 C         -0.3218310597       -2.2199707067       -1.4972722736
 C          0.6446499060       -1.8871096819       -2.4307964039
 C          1.6846589343       -1.0355892410       -2.1055454222
 C          1.7530911292       -0.5068073001       -0.8226394024
 C          0.7846713111       -0.8425977550        0.1126536375
 H          0.8270017021       -0.4241313034        1.1105059091
 N          2.8021663979        0.3706690682       -0.4853697222
 S          4.3544981154       -0.1013034762       -0.9628354363
 O          4.5469547566        0.2970253033       -2.3349490073
 O          4.5540707296       -1.5051452016       -0.6805598818
 C          5.3745386258        0.8977914185        0.1025484816
 C          5.6030972954        2.2171457701       -0.2395282882
 C          6.3843172529        2.9989539745        0.5963971859
 C          6.9200975538        2.4522697841        1.7531954174
 C          6.6820565501        1.1264512777        2.0826726442
 C          5.9005137842        0.3391115257        1.2518032103
 H          5.6970046723       -0.6985385251        1.4631057682
 H          7.1021015128        0.7034207053        2.9810012978
 H          7.5297883162        3.0623556100        2.4007808751
 H          6.5742515762        4.0294575032        0.3430439315
 H          5.1751400529        2.5958659852       -1.1529809499
 H          2.7842965562        0.6179554588        0.4949828808
 H          2.4479556355       -0.7793340387       -2.8227418686
 H          0.5881266386       -2.2980563295       -3.4277649978
 H         -1.1362979860       -2.8703235242       -1.7702716620
 H         -0.8027057890       -1.9172306787        1.8237947167
 C         -1.9115666848       -3.3713070414        0.7244120816
 C         -1.0782589901       -4.5683846783        1.0667348119
 C         -2.2014128215       -4.1541112497        1.9681018466
 H         -3.0921237740       -4.7635828381        1.9963478141
 H         -1.9545514812       -3.6987144825        2.9163096692
 H         -1.1949341649       -5.4642648338        0.4765259062
 H         -0.0665815250       -4.3917485111        1.4005083129
 H         -2.6172183527       -3.4612235890       -0.0906898064
