  62
        -98.94078589
 C         -1.6796537749       -0.1963695169        0.6447255662
 C         -2.9235038103       -0.2531918931        1.3239229811
 C         -4.0892229649       -0.6369726059        0.5173484663
 C         -3.9249798231       -0.8878323242       -0.7940630155
 C         -5.0321546695       -1.2343434838       -1.7460969518
 C         -5.6144522566        0.0252129380       -2.4025589376
 C         -5.9614473470        1.1350355065       -1.4101735451
 H         -5.0406396424        1.5059004994       -0.9539644360
 H         -6.3907715572        1.9604471014       -1.9822284183
 C         -6.9407758474        0.7155772669       -0.3049138314
 H         -7.6959485917        1.4962503000       -0.1913620039
 H         -7.4608048617       -0.1973776324       -0.5973280389
 C         -6.2987688845        0.5142932873        1.0690460762
 H         -7.0987687895        0.4366055691        1.8101947234
 H         -5.7000255760        1.3918076640        1.3263483914
 C         -5.4159098998       -0.7312968670        1.2170855219
 H         -5.1869523531       -0.8504803077        2.2802310952
 H         -5.9659417416       -1.6135907584        0.8832268418
 H         -6.5084008889       -0.2582940585       -2.9610583645
 H         -4.8807684798        0.4171571308       -3.1107093781
 H         -5.8119889164       -1.7703255178       -1.2085115171
 H         -4.6267837416       -1.8837133787       -2.5237871909
 O         -2.7234653862       -0.8020012993       -1.4163836507
 C         -1.5715616929       -0.4427323956       -0.7251774964
 O         -0.5557805677       -0.3855037708       -1.4406614789
 O         -3.0531537432        0.0101878714        2.5495590539
 C         -0.4589526014        0.2100320316        1.4508456901
 C          0.3170512603        1.2767023941        0.7218650227
 C         -0.3028555662        2.4974584700        0.4653067690
 C          0.3629889969        3.4998122424       -0.2114761688
 C          1.6681446626        3.3127606655       -0.6326737358
 C          2.2958695252        2.0995867391       -0.3814416426
 C          1.6192252063        1.0897749197        0.2890236103
 H          2.1161857593        0.1494262535        0.4561478280
 N          3.6067973710        1.8684072403       -0.8180237669
 S          4.6562217854        0.9387790422        0.0857986838
 O          4.4436026286        1.1176030650        1.5039132308
 O          5.9715348153        1.2980414647       -0.4019572952
 C          4.3164998890       -0.7469674290       -0.3754472905
 C          3.9183861739       -1.0339628275       -1.6655013799
 C          3.7021659926       -2.3561480988       -2.0192143493
 C          3.8959800943       -3.3640512563       -1.0873684497
 C          4.3009656155       -3.0597236222        0.2031586857
 C          4.5135476587       -1.7388106500        0.5651012121
 H          4.8153664993       -1.4566240884        1.5613536073
 H          4.4489585552       -3.8447665998        0.9278440335
 H          3.7262234170       -4.3919919098       -1.3665930586
 H          3.3797380315       -2.5949282523       -3.0198784706
 H          3.7680391061       -0.2288520095       -2.3650749996
 H          4.0656484699        2.6519434194       -1.2579072176
 H          2.1927831975        4.0956619073       -1.1590778717
 H         -0.1330064939        4.4385862146       -0.4081275309
 H         -1.3214958866        2.6453594769        0.7983394206
 H         -0.8758287453        0.6648059232        2.3657159520
 C          0.4071119686       -0.9546728449        1.9061259486
 C         -0.1967524961       -2.2958944806        2.1935062121
 C          0.7185230626       -2.1224412955        1.0205088220
 H          1.7085090289       -2.5515012019        1.0727868800
 H          0.2966593023       -2.1248235740        0.0281501185
 H          0.1604320781       -2.8462480072        3.0507979676
 H         -1.2535229965       -2.4176953910        2.0049419908
 H          1.1986388064       -0.6285902534        2.5754012980
