  62
        -98.95136423
 C         -2.3384869349       -0.0767780320        0.1119829315
 C         -1.6079400329        0.4858256367       -0.9610919693
 C         -1.4406989828        1.9435396961       -0.9272840813
 C         -1.8899802722        2.6398533373        0.1325805950
 C         -1.7990854694        4.1302001613        0.3186526946
 C         -0.4410518987        4.6080708000        0.8503295089
 C          0.6940882356        4.6080623141       -0.1739952924
 H          0.3671196723        5.1246557971       -1.0775573807
 H          1.5123849002        5.1882706001        0.2572738537
 C          1.2220423545        3.2132651816       -0.5373703076
 H          2.3154240157        3.2308306481       -0.5470709972
 H          0.9299987986        2.4951355831        0.2328302542
 C          0.7690386009        2.6977824196       -1.9025302034
 H          1.1706205194        3.3434516446       -2.6873812231
 H          1.1887867765        1.6994449439       -2.0391649000
 C         -0.7516224654        2.6086403224       -2.0824087465
 H         -0.9525165347        2.0072605910       -2.9728460286
 H         -1.1668696281        3.6053448434       -2.2348206232
 H         -0.5741890814        5.6296837374        1.2147056594
 H         -0.1587591341        3.9834686010        1.7017321173
 H         -2.0203130889        4.6336993996       -0.6232461273
 H         -2.5686664661        4.3985046846        1.0458316234
 O         -2.5216052872        2.0512820617        1.1830489397
 C         -2.7652560107        0.6887606086        1.1960879781
 O         -3.3684492180        0.2823252031        2.2122151593
 O         -1.1301450180       -0.1921448789       -1.9088361249
 C         -2.6058887198       -1.5719237424        0.1522374270
 C         -1.2954895259       -2.3200334392        0.1997366085
 C         -1.0128940606       -3.4396714329       -0.5725892472
 C          0.2241126938       -4.0558876181       -0.4855426872
 C          1.2096290279       -3.5565843232        0.3467986977
 C          0.9331067763       -2.4405709111        1.1281198209
 C         -0.3206796767       -1.8548250265        1.0728887889
 H         -0.5254801368       -0.9928553124        1.6909962693
 N          1.9088840996       -1.8634006688        1.9682404851
 S          2.3543890116       -0.2835482158        1.6195045518
 O          3.4303132262        0.0147424626        2.5402192798
 O          1.2035769564        0.5789372790        1.6840733805
 C          3.0069561758       -0.3738982423       -0.0386648730
 C          4.3782770409       -0.3531948590       -0.2095820152
 C          4.9006264796       -0.4997013151       -1.4840479763
 C          4.0467891794       -0.6792683636       -2.5623075240
 C          2.6742001815       -0.7052732370       -2.3734606187
 C          2.1431776107       -0.5498845248       -1.1013802585
 H          1.0764314229       -0.5577152911       -0.9409681936
 H          1.9993089359       -0.8426232630       -3.2034442031
 H          4.4514168467       -0.7991660124       -3.5548628252
 H          5.9683219613       -0.4776704315       -1.6316716228
 H          5.0015221549       -0.2153314979        0.6592269798
 H          2.7432298463       -2.4262300843        2.0670294122
 H          2.1833518400       -4.0205345343        0.3925379012
 H          0.4300693944       -4.9257134988       -1.0902051517
 H         -1.7591483866       -3.8265996555       -1.2468437566
 H         -3.1363460292       -1.7577765075        1.0980851749
 C         -3.4977771184       -1.9833259898       -1.0003860972
 C         -4.4196904632       -3.1562157886       -0.8598394364
 C         -4.9752766150       -1.7648476032       -0.8836605209
 H         -5.5193796592       -1.4386904761       -1.7572021910
 H         -5.3415026744       -1.3417393591        0.0408484440
 H         -4.5878122358       -3.7868422241       -1.7197552766
 H         -4.4188390429       -3.6833304254        0.0823333903
 H         -3.0406650152       -1.8012916945       -1.9659331993
