  62
        -98.93819602
 C         -1.7817522994       -1.0706778401       -0.0771821297
 C         -2.3097007994        0.0916084794       -0.6824266405
 C         -3.7816783394        0.2212097494       -0.6981854707
 C         -4.5257210894       -0.7619773703       -0.1581226800
 C         -6.0238734394       -0.8278257303       -0.0261049700
 C         -6.5574938794        0.0657858405        1.1060974493
 C         -5.9210964795        1.4510705206        1.1882413084
 H         -6.2910694495        1.9331954412        2.0970116781
 H         -4.8400218195        1.3442908507        1.2959281685
 C         -6.2239341195        2.3776122697        0.0131698678
 H         -5.7688823495        3.3458784599        0.2372080971
 H         -7.3039036495        2.5266310697       -0.0564575224
 C         -5.7103735494        1.9162162388       -1.3519105019
 H         -5.7955166494        2.7661144883       -2.0356293325
 H         -6.3384416794        1.1288345485       -1.7598666814
 C         -4.2456914794        1.4892061989       -1.3734106616
 H         -3.9246640094        1.4014644682       -2.4187744415
 H         -3.6311487295        2.2933462292       -0.9523527121
 H         -7.6376993494        0.1652629504        0.9877319892
 H         -6.3671672794       -0.4428844788        2.0542264597
 H         -6.4920951294       -0.5771419809       -0.9732760302
 H         -6.2735631393       -1.8659078201        0.2038816507
 O         -3.9690078693       -1.8690085699        0.4121042808
 C         -2.6024180793       -2.0542455998        0.4724122109
 O         -2.2447892493       -3.1104860094        1.0322704817
 O         -1.5913858094        0.9949395691       -1.1868753911
 C         -0.2794814594       -1.2849686800       -0.0228287395
 C          0.3825528206       -0.1192621695        0.6686268797
 C         -0.0989465595        0.2736539513        1.9158330494
 C          0.4579131005        1.3457564518        2.5837425887
 C          1.5179979005        2.0419707814        2.0292668282
 C          2.0123661505        1.6528141706        0.7907235985
 C          1.4517211006        0.5716142101        0.1214153092
 H          1.8426110706        0.3049580195       -0.8459789206
 N          3.0807487005        2.3449800402        0.2079352781
 S          4.1839608506        1.5803486596       -0.7753912614
 O          5.3549806505        2.4305220197       -0.7246423719
 O          3.6337878506        1.3556369687       -2.0884064312
 C          4.5439217806        0.0153018102        0.0052874297
 C          4.6451640407       -1.1131256204       -0.7817740895
 C          4.9481944407       -2.3266932400       -0.1852539886
 C          5.1430812507       -2.3905912590        1.1853594414
 C          5.0430857706       -1.2472029885        1.9631852006
 C          4.7447137606       -0.0308716189        1.3707680298
 H          4.6670672305        0.8712945015        1.9548798391
 H          5.1958670006       -1.2997992077        3.0291055607
 H          5.3743167807       -3.3363049587        1.6496872921
 H          5.0273298707       -3.2153658204       -0.7908584980
 H          4.4790126807       -1.0191437011       -1.8427020796
 H          3.4981564105        3.0659670307        0.7763104476
 H          1.9500184104        2.8864987218        2.5441266277
 H          0.0665011104        1.6431285124        3.5449464385
 H         -0.9288282995       -0.2700400684        2.3470805698
 H         -0.1242278393       -2.1822293596        0.5941420811
 C          0.2524213507       -1.5551668110       -1.4141697693
 C          1.4709599707       -2.4049382811       -1.6052253487
 C          0.1206425608       -2.9366084914       -1.9788974884
 H         -0.1219946792       -3.0455561821       -3.0253764383
 H         -0.3296313092       -3.6874614510       -1.3457936579
 H          2.1551217408       -2.1451893616       -2.3987124489
 H          1.9477322307       -2.8013001604       -0.7215920784
 H          0.0986081307       -0.7216279815       -2.0906275799
