  62
        -98.93742889
 C         -1.9567401224       -1.4784255222        0.2894269469
 C         -2.0016351413       -0.3298259215        1.1190573288
 C         -2.9839471666        0.7106930348        0.7750016317
 C         -3.7701471204        0.5395241395       -0.3041807490
 C         -4.8850614665        1.3924987485       -0.8725730073
 C         -5.0730664488        2.8365399543       -0.4151014739
 C         -3.9527706425        3.7895522271       -0.8310056295
 H         -4.0039993121        3.9317655353       -1.9134947258
 H         -4.1360885724        4.7577505795       -0.3600760067
 C         -2.5354638932        3.3320223914       -0.4941575619
 H         -2.3100222130        2.4093957683       -1.0327501680
 H         -1.8457609067        4.0962669890       -0.8616897861
 C         -2.2494484841        3.1207240328        0.9911831845
 H         -2.4946660402        4.0281494487        1.5463275419
 H         -1.1769167332        2.9376114882        1.0974719317
 C         -2.9814422683        1.9355798505        1.6431747627
 H         -3.9941605293        2.2043757541        1.9337456184
 H         -2.4396347788        1.6648618708        2.5540079665
 H         -5.2277887989        2.8735469368        0.6592207732
 H         -5.9973270147        3.1918029828       -0.8790674821
 H         -4.7495261258        1.3751893662       -1.9586731861
 H         -5.8108522554        0.8423540288       -0.6704019948
 O         -3.6783533725       -0.5745546752       -1.0851496142
 C         -2.7699533658       -1.5917530835       -0.8369100837
 O         -2.8060441805       -2.5043072840       -1.6843447829
 O         -1.2527355816       -0.1850356932        2.1229204490
 C         -0.9341397199       -2.5412973526        0.6558589816
 C          0.3382134903       -2.2879530720       -0.1162896532
 C          0.4213973078       -2.5250006274       -1.4841617775
 C          1.5893479696       -2.2456472181       -2.1706420174
 C          2.6937400543       -1.7297866987       -1.5140664814
 C          2.6159427832       -1.4768791990       -0.1504930640
 C          1.4420309164       -1.7586615055        0.5371333718
 H          1.3778339707       -1.5481675003        1.5960957418
 N          3.7329423378       -0.9689642316        0.5388810406
 S          4.5082334337        0.4140045466        0.0114261202
 O          5.0016305702        0.2013400547       -1.3251548230
 O          5.4975465770        0.6989589489        1.0243501478
 C          3.2705626881        1.6986416885        0.0058649849
 C          3.2309617912        2.5874407491        1.0616909623
 C          2.2658149466        3.5811086066        1.0672033555
 C          1.3542010159        3.6613282077        0.0259588395
 C          1.3968437331        2.7515435226       -1.0194167151
 C          2.3646620145        1.7598891264       -1.0345672387
 H          2.4325313777        1.0439740046       -1.8375570226
 H          0.6796682770        2.8105936816       -1.8226574540
 H          0.6076290872        4.4399260804        0.0274602701
 H          2.2261674298        4.2878598088        1.8804355698
 H          3.9641245324        2.4926393682        1.8464712937
 H          3.5966490960       -0.9180750286        1.5384106937
 H          3.6075256449       -1.5072765923       -2.0409559144
 H          1.6433146334       -2.4346485188       -3.2324036458
 H         -0.4424393348       -2.9073570939       -2.0057679422
 H         -0.7154210392       -2.3739922892        1.7192284004
 C         -1.4272967386       -3.9631546312        0.4897673812
 C         -0.7105177845       -5.0627856487        1.2125333906
 C         -2.0835035210       -4.6494424249        1.6484594881
 H         -2.9115027534       -5.3133890564        1.4507071625
 H         -2.1806806943       -4.0950582191        2.5706735521
 H         -0.5920920394       -6.0134538885        0.7159720017
 H          0.1245020838       -4.7880927379        1.8394755957
 H         -1.8172230211       -4.1788354720       -0.4955724781
