  62
        -98.94785389
 C         -1.0142902730       -0.9555311365        0.7170519598
 C         -1.6719643940       -0.8631080657       -0.5329049552
 C         -2.3486122300        0.4111335729       -0.8028622047
 C         -2.2513376908        1.4211666850        0.0793587909
 C         -2.8452519266        2.7952550906       -0.0772065245
 C         -4.3194763529        2.8932092526        0.3391020270
 C         -5.3129229307        2.2341872767       -0.6183336478
 H         -6.3103026699        2.5658214373       -0.3228560344
 H         -5.1351918678        2.5980672923       -1.6308402969
 C         -5.2797133789        0.6995938506       -0.6079672372
 H         -6.3004813015        0.3134407497       -0.5647795786
 H         -4.7663589513        0.3520745744        0.2913531714
 C         -4.6097687842        0.0727737268       -1.8308234658
 H         -5.1894239189        0.3053646733       -2.7269585882
 H         -4.6077115903       -1.0126687857       -1.7031916813
 C         -3.1607951914        0.5245880993       -2.0567432730
 H         -2.7043776081       -0.1299508749       -2.8038108250
 H         -3.1368659600        1.5470911848       -2.4344567718
 H         -4.4298778929        2.4577020124        1.3347204980
 H         -4.5668412373        3.9548909656        0.4102640913
 H         -2.2629123862        3.4618144244        0.5631396351
 H         -2.7313462753        3.1245590009       -1.1109145477
 O         -1.5570645128        1.3129060612        1.2438716540
 C         -0.9312462305        0.1254688676        1.5929182036
 O         -0.3365051827        0.1620445791        2.6892734774
 H          1.4448839258       -0.3858869236        0.2586582826
 C          1.6349220749       -1.3271697816       -0.2362964806
 C          0.8483466781       -2.4277845718        0.0800242713
 C          1.1148211221       -3.6365741243       -0.5480683586
 C          2.1223123845       -3.7219781237       -1.4943629153
 C          2.8682464349       -2.6110528405       -1.8428022780
 C          2.6183495452       -1.3995669756       -1.2070715285
 N          3.3566863519       -0.2469680206       -1.5132831959
 S          2.6196034702        1.2538332676       -1.4440248732
 O          1.2349879384        1.2040051849       -1.8535485990
 O          3.4809909604        2.1060459723       -2.2390421388
 C          2.7538418269        1.7400131358        0.2622537095
 C          1.6852882443        2.3709565854        0.8662222779
 C          1.7978835072        2.7667339033        2.1889834487
 C          2.9760579917        2.5300364827        2.8792011997
 C          4.0444938837        1.9030997983        2.2559263928
 C          3.9370906341        1.5039606598        0.9336526197
 H          4.7432610160        1.0096666542        0.4177785590
 H          4.9580827446        1.7202390657        2.7984668116
 H          3.0574724294        2.8330973636        3.9110897193
 H          0.9608174840        3.2410096162        2.6755228324
 H          0.7793488335        2.5192952915        0.2982550806
 H          3.9834211648       -0.3303729942       -2.3003301644
 H          3.6332818392       -2.6751429775       -2.6014103590
 H          2.3165794836       -4.6650530295       -1.9824520773
 H          0.5264443094       -4.5072352970       -0.3093411246
 C         -0.2584872280       -2.2204881554        1.0862041819
 H          0.2017079020       -2.0255787360        2.0660927645
 C         -1.2003721326       -3.3985560766        1.2105550113
 C         -0.8641216438       -4.5383996659        2.1233069240
 C         -1.9609463477       -3.5849164557        2.4879065903
 H         -2.9836620289       -3.9265911300        2.4337243054
 H         -1.7799284490       -2.8733695943        3.2805799759
 H          0.0610484451       -4.4795717274        2.6762410045
 H         -1.1363874283       -5.5385460828        1.8216339450
 H         -1.7177603743       -3.6170644841        0.2836524416
 O         -1.6978881097       -1.7945079092       -1.3796397282
