  62
        -98.93927528
 C         -2.2190300687       -1.0507496614       -0.4929683455
 C         -3.3777253690       -0.7924004332        0.2866119366
 C         -4.1249996855        0.4269317786       -0.0330209661
 C         -3.6994213423        1.2221880645       -1.0306940235
 C         -4.3627319725        2.4896475137       -1.4982041280
 C         -3.9947957458        3.7304261818       -0.6730941994
 C         -4.6136879852        3.7901392990        0.7241039773
 H         -4.4574203668        4.8030993419        1.1001178898
 H         -5.6900424004        3.6323363232        0.6499384767
 C         -4.0125894348        2.7939593485        1.7256031780
 H         -3.0542841573        2.4296241919        1.3470616980
 H         -3.8091941313        3.3042800771        2.6697221714
 C         -4.9070902273        1.5953063646        2.0418076831
 H         -5.8135658200        1.9372288675        2.5461107879
 H         -4.3669468520        0.9365030468        2.7263952524
 C         -5.3132716014        0.7705548657        0.8138403994
 H         -5.7542038497       -0.1669920906        1.1609162960
 H         -6.0546924861        1.3105741076        0.2254074393
 H         -4.3314836452        4.6052168404       -1.2343495113
 H         -2.9063595034        3.7855193357       -0.5934826226
 H         -5.4451834141        2.3573000759       -1.4957033094
 H         -4.0334136893        2.6501458170       -2.5270781079
 O         -2.5944264389        0.9360437669       -1.7674146509
 C         -1.8178135812       -0.1902906101       -1.5157126980
 O         -0.8384625276       -0.2906882739       -2.2810266849
 O         -3.7771838363       -1.5609179620        1.2022240842
 C         -1.4511809110       -2.3130849790       -0.1448648535
 C         -0.3384071233       -2.0413685615        0.8403836763
 C         -0.2706024963       -2.7506631988        2.0341010991
 C          0.7668297084       -2.5360588115        2.9234272664
 C          1.7606351176       -1.6212124340        2.6310619612
 C          1.6956408970       -0.8958178651        1.4450804628
 C          0.6465501419       -1.1037402076        0.5607587404
 H          0.6099413055       -0.5348702733       -0.3565260427
 N          2.6741209536        0.0647520747        1.1531333055
 S          3.0943699388        0.3744363940       -0.4525561425
 O          2.2450810660        1.4237445194       -0.9567576663
 O          3.1389069317       -0.8600992720       -1.2010197397
 C          4.7512685444        0.9998776783       -0.2279462510
 C          4.9391605703        2.3473594780        0.0141621306
 C          6.2267176874        2.8190426965        0.2166526215
 C          7.2992073690        1.9406524731        0.1753916928
 C          7.0959346479        0.5910329572       -0.0708738073
 C          5.8109436833        0.1131648923       -0.2737297675
 H          5.6052127335       -0.9249423247       -0.4798483929
 H          7.9316217996       -0.0890889628       -0.1066593549
 H          8.2999718394        2.3106628129        0.3326209460
 H          6.3884158070        3.8682707934        0.4041816135
 H          4.0757963302        2.9922257287        0.0273129643
 H          3.4825003924        0.0075517027        1.7568914812
 H          2.5772276315       -1.4580393637        3.3177225520
 H          0.8070452211       -3.0925524013        3.8473277266
 H         -1.0459056281       -3.4659314791        2.2655519399
 H         -2.1842566691       -2.9623611730        0.3549861431
 C         -0.8953443656       -3.0570204323       -1.3431843316
 C         -0.6894334295       -4.5380556778       -1.2479707083
 C         -1.7850626761       -3.9868217286       -2.1094556240
 H         -1.6769452855       -4.0317302921       -3.1826152804
 H         -2.8046160258       -4.0934552534       -1.7682357501
 H          0.1773020599       -4.9656448739       -1.7280596354
 H         -0.9685775678       -5.0250777647       -0.3259438937
 H         -0.1690855002       -2.4833811037       -1.9055063244
