  62
        -98.93793809
 C         -1.7243380146       -1.5969756340        0.1467239982
 C         -1.9822824746       -0.6119157402        1.1305354873
 C         -2.9647201352        0.4373896993        0.8004220970
 C         -3.5496964971        0.4125302628       -0.4117584098
 C         -4.5713231672        1.3624258655       -0.9799098922
 C         -3.9640568022        2.7032416627       -1.4197817885
 C         -2.9771490901        3.3107992049       -0.4272552242
 H         -2.5448170204        4.2008505706       -0.8918003699
 H         -2.1670733212        2.6005590747       -0.2547384012
 C         -3.5775914588        3.7333033282        0.9115060487
 H         -4.3810708899        4.4516758089        0.7345457912
 H         -2.7932037362        4.2481755378        1.4724338616
 C         -4.1201395900        2.6025543268        1.7886783452
 H         -5.0970204196        2.2715881649        1.4464017529
 H         -4.2671168938        3.0116982527        2.7926015184
 C         -3.1845399673        1.4067505806        1.9370403827
 H         -3.5311455566        0.7959339148        2.7793857492
 H         -2.1900722934        1.7610372544        2.2318827216
 H         -4.7784809000        3.4051131599       -1.6073004069
 H         -3.4345194338        2.5407000296       -2.3615344012
 H         -5.3731706077        1.5177988095       -0.2640182266
 H         -4.9998345327        0.8707262798       -1.8560753877
 O         -3.2385408381       -0.5304306205       -1.3441008027
 C         -2.3218882092       -1.5400157210       -1.1123763108
 O         -2.1497042412       -2.2949592674       -2.0876504225
 O         -1.4154522296       -0.6072093342        2.2578254348
 C         -0.7219549520       -2.6842522732        0.4999600756
 C          0.6244804689       -2.2916212613       -0.0575876656
 C          0.9918583111       -2.5466186441       -1.3737907896
 C          2.2203128107       -2.1228185085       -1.8492980446
 C          3.1031221034       -1.4401636517       -1.0305167539
 C          2.7381184715       -1.1684329426        0.2814717932
 C          1.5064975753       -1.5947955400        0.7577339184
 H          1.2149608376       -1.3687620525        1.7747860753
 N          3.6215691516       -0.4688944426        1.1259602180
 S          4.2660600124        0.9693992801        0.5640302801
 O          5.2830747603        0.6865867642       -0.4167281906
 O          4.7008258493        1.6775077090        1.7462698791
 C          2.8979281189        1.8180442685       -0.2018644858
 C          1.9434619480        2.3853896720        0.6191310181
 C          0.8493135152        3.0092200774        0.0434709502
 C          0.7235482659        3.0451333943       -1.3369459820
 C          1.6891245046        2.4691376520       -2.1472214048
 C          2.7888519663        1.8481323055       -1.5769727903
 H          3.5648717620        1.3961256898       -2.1722718296
 H          1.5875453619        2.5004283952       -3.2200931258
 H         -0.1320827358        3.5273348735       -1.7827096153
 H          0.0973173853        3.4606876900        0.6709525613
 H          2.0762635365        2.3434340721        1.6885455920
 H          3.2634240548       -0.3478890907        2.0625535631
 H          4.0659737630       -1.1120488742       -1.3870588705
 H          2.4959035092       -2.3283991229       -2.8725428513
 H          0.3000733334       -3.0544493637       -2.0265922775
 H         -0.6459154449       -2.6581350171        1.5955215027
 C         -1.1541586150       -4.0740585127        0.0840399572
 C         -0.4366858984       -5.2545476480        0.6649370573
 C         -1.8445060823       -4.9539981454        1.0808524938
 H         -2.6355079122       -5.6020492380        0.7344530430
 H         -2.0097053408       -4.5570618781        2.0720453236
 H         -0.2578368164       -6.1110434451        0.0334476334
 H          0.3545910597       -5.0583403685        1.3729303965
 H         -1.4854007058       -4.1405550927       -0.9434288680
