  62
        -98.93322163
 C         -2.2633354981       -1.0014880959        0.1714276629
 C         -3.0420924487       -0.2841878585        1.1167607950
 C         -3.9621671709        0.7307970700        0.5844237702
 C         -4.0095009670        0.9332458439       -0.7444017952
 C         -4.9426202787        1.8727028992       -1.4540674639
 C         -6.3528865435        1.2544145405       -1.5355704617
 C         -7.4181937335        2.0085585401       -0.7395734186
 H         -7.6904672651        2.9160421778       -1.2826155579
 H         -8.3048037205        1.3724620308       -0.6957100510
 C         -7.0245886209        2.4145413884        0.6839013029
 H         -7.9451647156        2.6945886510        1.2003126909
 H         -6.4018566448        3.3097534216        0.6514198196
 C         -6.3017877877        1.3437272063        1.5113804443
 H         -6.5384713207        0.3460535680        1.1410077221
 H         -6.6737486688        1.3983581544        2.5364687221
 C         -4.7725596472        1.5118193156        1.5816044126
 H         -4.5181811866        2.5727292659        1.5068531814
 H         -4.4267466750        1.1593187167        2.5577870009
 H         -6.6716538953        1.2114628704       -2.5781762109
 H         -6.2951345121        0.2225765440       -1.1826183127
 H         -4.9719130075        2.8258265534       -0.9306446714
 H         -4.5407857110        2.0353322878       -2.4544292894
 O         -3.2443772064        0.2339147127       -1.6202744177
 C         -2.3494975587       -0.7420446751       -1.1962382922
 O         -1.7167986476       -1.2712641735       -2.1299860472
 H          0.2064603539       -0.6394045446       -0.9947607959
 C          0.7021395053       -0.7788610819       -0.0448712013
 C          0.0574468887       -1.4863858809        0.9602886305
 C          0.7161826455       -1.6708637310        2.1699234784
 C          1.9872674328       -1.1583750421        2.3639671415
 C          2.6241630196       -0.4501859377        1.3607739039
 C          1.9748435389       -0.2605716745        0.1476617856
 N          2.6019601839        0.4722627583       -0.8747782069
 S          4.1758415073        0.0628343003       -1.2927185471
 O          4.3359663843        0.5086798689       -2.6592487948
 O          4.4448863665       -1.3330392043       -1.0354308292
 C          5.1741072840        1.0848668743       -0.2299895319
 C          6.1538630308        0.5127153729        0.5574686169
 C          6.9253417173        1.3317599546        1.3674564831
 C          6.7051766930        2.7005429082        1.3745143915
 C          5.7185804788        3.2597274736        0.5757613101
 C          4.9445651587        2.4468557308       -0.2367237058
 H          4.1694969326        2.8409040738       -0.8729050592
 H          5.5498061340        4.3245582830        0.5841292485
 H          7.3055823571        3.3358321646        2.0063409853
 H          7.6928305984        0.8992297276        1.9889383666
 H          6.2850543971       -0.5570777139        0.5233008824
 H          2.0296472186        0.5739511144       -1.7009421095
 H          3.6131466793       -0.0476740484        1.5066716769
 H          2.4871901460       -1.3086452113        3.3084937218
 H          0.2209328638       -2.2106615438        2.9636170171
 C         -1.3209013744       -2.0527761482        0.7308614097
 H         -1.7399219041       -2.3047090357        1.7178354991
 C         -1.2996669650       -3.3345612368       -0.0915592548
 C         -0.1287413127       -3.7815318009       -0.9095677388
 C         -0.4730617971       -4.5034339301        0.3565865422
 H         -0.8970438408       -5.4938910016        0.2913318067
 H          0.1790792203       -4.3544299713        1.2039235629
 H          0.7583949723       -3.1669567698       -0.9225388736
 H         -0.3343070897       -4.2573947149       -1.8565019155
 H         -2.2782573395       -3.5630642720       -0.5022799507
 O         -2.9703198155       -0.4912454189        2.3575690364
