  62
        -98.94283482
 C         -1.1712599494       -1.6886010106        0.2038627707
 C         -1.6045889995       -0.8093500202        1.2213613603
 C         -2.8176515698       -0.0218377707        0.9430987500
 C         -3.4182648499       -0.1551315716       -0.2520053698
 C         -4.6135288103        0.5972823678       -0.7683058800
 C         -4.1702484808        1.8478513475       -1.5471853708
 C         -3.9965067410        3.1064167280       -0.6992127315
 H         -3.5809240013        3.8798139478       -1.3494429120
 H         -4.9765995510        3.4504465979       -0.3602816416
 C         -3.0802657408        2.9527669990        0.5172779184
 H         -2.1823422406        2.3997485691        0.2316388686
 H         -2.7511162310        3.9517138992        0.8123639378
 C         -3.7737064304        2.2844936094        1.7140020689
 H         -4.8488255204        2.2644593290        1.5350185091
 H         -3.6198197504        2.8962794600        2.6057248585
 C         -3.2809918999        0.8731254598        2.0601675496
 H         -4.0657191096        0.3509450898        2.6188320800
 H         -2.4185870598        0.9472012304        2.7305123794
 H         -4.9104871309        2.0607237668       -2.3215719708
 H         -3.2264312208        1.6174392275       -2.0492387108
 H         -5.1307818002       -0.0760001028       -1.4552051796
 H         -5.2881824002        0.8573888180        0.0420273299
 O         -2.9558817198       -0.9991835920       -1.2156549894
 C         -1.8210804696       -1.7691290515       -1.0270874992
 O         -1.5050978095       -2.4699286220       -2.0076350488
 O         -0.9933010094       -0.6773177794        2.3177157401
 C          0.0991724909       -2.4890428401        0.4154326510
 C          1.1783178906       -2.0348735404       -0.5392214695
 C          2.1459820807       -2.8862874104       -1.0589946392
 C          3.1249138505       -2.3958672706       -1.9062620196
 C          3.1766637900       -1.0536910607       -2.2377252903
 C          2.2150975398       -0.1934961707       -1.7200312007
 C          1.2317815501       -0.6917804205       -0.8817840102
 H          0.4751044000       -0.0191161606       -0.5115614805
 N          2.2124129094        1.1739378391       -2.0292467014
 S          1.6880359092        2.2879826096       -0.8979155420
 O          0.2558980293        2.2267016692       -0.7517321717
 O          2.2200152988        3.5475341095       -1.3738294828
 C          2.5177519196        1.8213863007        0.6108204681
 C          1.8304697199        1.2391981711        1.6552001586
 C          2.5358469302        0.8384889319        2.7797437487
 C          3.9069385502        1.0271199624        2.8428950184
 C          4.5828216298        1.6249180020        1.7892891579
 C          3.8844689395        2.0226915611        0.6619933678
 H          4.3710135893        2.5005784908       -0.1727453925
 H          5.6486750798        1.7774231623        1.8425106577
 H          4.4498846904        0.7091755130        3.7189812685
 H          1.9992233905        0.3736740322        3.5916205490
 H          0.7635688700        1.0941056007        1.5894771488
 H          3.0120327592        1.5020509891       -2.5495221618
 H          3.9420805098       -0.6758871309       -2.8978700607
 H          3.8646743906       -3.0695117806       -2.3112082993
 H          2.1280230111       -3.9342300302       -0.8080241986
 H          0.4329693809       -2.2408224195        1.4351668108
 C         -0.1757167287       -3.9767899703        0.3434197218
 C          0.6084222317       -4.9352221996        1.1880358422
 C         -0.8251889983       -4.6486607798        1.5151474223
 H         -1.5642114581       -5.4128256001        1.3269110629
 H         -1.0416949884       -4.0366417494        2.3787053120
 H          0.8539278319       -5.9025055697        0.7761460228
 H          1.3654045617       -4.5256582290        1.8396724019
 H         -0.4802292688       -4.2944083509       -0.6472784979
