  62
        -98.94379675
 C         -1.6403249643       -1.4249128619        0.4012656678
 C         -1.7713069132       -0.1814219596        1.0755576812
 C         -3.0453737838        0.5234685745        0.9034099914
 C         -4.0234231627       -0.0408604488        0.1727549827
 C         -5.3984894210        0.5251953941       -0.0578512570
 C         -5.4758719374        1.5386415020       -1.2078013637
 C         -4.8334986941        2.8963478774       -0.9212735792
 H         -5.1476799395        3.5736602401       -1.7179244674
 H         -5.2266118381        3.2920847010        0.0157014522
 C         -3.2995332903        2.8699933653       -0.8703583918
 H         -2.9354056272        1.9528041836       -1.3391257672
 H         -2.9022678710        3.7046746784       -1.4518876289
 C         -2.7067257497        2.9741693608        0.5349347275
 H         -2.9442104430        3.9510805908        0.9618341143
 H         -1.6210312623        2.8913752336        0.4494613771
 C         -3.1862247074        1.8880580868        1.5066159735
 H         -2.5588508139        1.9221106099        2.4006641303
 H         -4.2201059923        2.0711202972        1.7989551015
 H         -6.5336407008        1.6994045097       -1.4289270159
 H         -5.0147324873        1.0969325420       -2.0942162068
 H         -5.7620290785        0.9870974584        0.8606721039
 H         -6.0452980232       -0.3207449128       -0.3007207847
 O         -3.8704281230       -1.2428996568       -0.4389987788
 C         -2.6739894374       -1.9466398528       -0.3771222813
 O         -2.6889866689       -2.9971755182       -1.0488804153
 O         -0.8654099166        0.3102331432        1.7989322408
 C         -0.3129829616       -2.1424659026        0.5712038090
 C          0.6382072563       -1.8338457188       -0.5607289848
 C          0.3054409398       -2.1066245497       -1.8834406662
 C          1.2016238682       -1.8286188749       -2.8990101013
 C          2.4385021859       -1.2746128200       -2.6188537436
 C          2.7835300029       -1.0042604389       -1.2994399599
 C          1.8809011114       -1.2840396831       -0.2819695280
 H          2.1617617828       -1.0773192962        0.7387749628
 N          4.0432805189       -0.4783929490       -0.9911342318
 S          4.3147341255        0.4917891037        0.3375858846
 O          5.6099807924        1.0814951710        0.0767356962
 O          4.2062763254       -0.2818141593        1.5486800106
 C          3.0644823227        1.7614708132        0.2864697460
 C          3.0883502561        2.6471726562       -0.7740089920
 C          2.1357168018        3.6501957488       -0.8307324824
 C          1.1807375292        3.7526811771        0.1703170388
 C          1.1725802089        2.8588434513        1.2290796260
 C          2.1214750635        1.8507818865        1.2882525228
 H          2.1319412536        1.1371861587        2.0958194021
 H          0.4268413839        2.9228256706        2.0049451827
 H          0.4405538281        4.5366146667        0.1265441524
 H          2.1391784388        4.3496915695       -1.6512091992
 H          3.8561690827        2.5496450870       -1.5242058691
 H          4.6088847086       -0.2146558445       -1.7834821790
 H          3.1364704971       -1.0613259028       -3.4137707126
 H          0.9334561507       -2.0443521018       -3.9223101681
 H         -0.6588278108       -2.5380261917       -2.1046420241
 H          0.1242335194       -1.7241741795        1.4886374607
 C         -0.4396402702       -3.6431035003        0.7489863477
 C          0.6830706874       -4.3896312158        1.4022266860
 C         -0.6177564812       -4.2080215601        2.1245231820
 H         -1.2644983196       -5.0634177192        2.2496651793
 H         -0.6487590166       -3.5132669098        2.9514194380
 H          0.9324012519       -5.3719581143        1.0313839998
 H          1.5360537484       -3.8187880804        1.7388987202
 H         -0.9655846307       -4.1307666568       -0.0611657611
