  62
        -98.94375471
 C         -1.7491270094       -1.4082186124       -0.3081329787
 C         -2.7343754081       -0.6372959836        0.3509405283
 C         -2.9783684563        0.7002633938       -0.2004510912
 C         -2.3087913079        1.1015981446       -1.2957877269
 C         -2.4381562367        2.4344987191       -1.9813089967
 C         -1.8984668072        3.6327088894       -1.1747592275
 C         -2.9722781823        4.3870427327       -0.3804216010
 H         -2.7675239965        5.4577948947       -0.4439207566
 H         -3.9405200086        4.2233823921       -0.8560755038
 C         -3.0706261365        4.0396301494        1.1083121067
 H         -4.0183571971        4.4333803059        1.4834393937
 H         -2.2652215605        4.5461587544        1.6456469818
 C         -2.9768218537        2.5537839230        1.4563578354
 H         -1.9372583679        2.2251347135        1.3665644005
 H         -3.2472440599        2.4320764254        2.5079387640
 C         -3.8544567792        1.6281695655        0.5889110660
 H         -4.4833921331        1.0047231771        1.2279610971
 H         -4.4980754746        2.2104375146       -0.0687944933
 H         -1.1003516734        3.2886542822       -0.5148496924
 H         -1.4514997794        4.3264226403       -1.8890942867
 H         -3.4859555875        2.6056346705       -2.2376239906
 H         -1.8725805301        2.3452016468       -2.9108665816
 O         -1.4188015589        0.3029213214       -1.9411490828
 C         -1.0614078530       -0.9298917900       -1.4216440338
 O         -0.1407436174       -1.4995981029       -2.0413727472
 O         -3.3652391899       -1.0432624222        1.3656707431
 C         -1.2918406175       -2.7165899975        0.3128279744
 C          0.1559017838       -2.5627516538        0.7154711812
 C          1.1342929853       -3.5207802507        0.4846027262
 C          2.4529031127       -3.2732673972        0.8292545288
 C          2.8279895641       -2.0621964210        1.3819867674
 C          1.8526795143       -1.1031638295        1.6297997036
 C          0.5291416255       -1.3737123350        1.3303436622
 H         -0.2154538059       -0.6189368974        1.5368087898
 N          2.1697635752        0.1668729124        2.1586355376
 S          1.8884283068        1.4804611356        1.1521918588
 O          2.3454702775        2.6320478057        1.9002883581
 O          0.5122441690        1.5015835300        0.7314402339
 C          2.9825604735        1.2029178459       -0.2286254923
 C          2.6177279780        0.3104323832       -1.2163410153
 C          3.5177121339        0.0430350573       -2.2371744532
 C          4.7567576280        0.6641298335       -2.2522973715
 C          5.1074486110        1.5584856676       -1.2516643910
 C          4.2158790997        1.8270025528       -0.2263236129
 H          4.4420386189        2.5157111491        0.5718031887
 H          6.0705189739        2.0428360669       -1.2659849315
 H          5.4510937576        0.4499856974       -3.0494162269
 H          3.2342437829       -0.6536321053       -3.0098454376
 H          1.6475991872       -0.1612091765       -1.1920370411
 H          3.1111043183        0.2320363356        2.5224695747
 H          3.8614811671       -1.8571403439        1.6175505888
 H          3.2028288623       -4.0262963385        0.6412980010
 H          0.8667146583       -4.4576138458        0.0238854687
 H         -1.8975343566       -2.8392907605        1.2231732323
 C         -1.5455137243       -3.8893883085       -0.6089875586
 C         -1.7893586403       -5.2556880430       -0.0426546162
 C         -2.9186238444       -4.4870957466       -0.6580543448
 H         -3.3061746367       -4.8101197285       -1.6124638414
 H         -3.6668401421       -4.0619271510       -0.0050090507
 H         -1.4045031006       -6.1115550730       -0.5762827486
 H         -1.7764363492       -5.3613552120        1.0316307749
 H         -1.0006923788       -3.8087734641       -1.5426485381
