  62
        -98.94532197
 C          2.3659436641        0.3645820933        0.0927617979
 C          1.5588214302       -0.2879641062       -0.8658119451
 C          1.5866415521       -1.7611282439       -0.8598934848
 C          2.3192484510       -2.3993322712        0.0690626931
 C          2.5669735264       -3.8778730630        0.2517324716
 C          1.4285663562       -4.8549571084       -0.0507579705
 C          0.0415313508       -4.3913512188        0.4168417871
 H         -0.4132195331       -5.1776301291        1.0226786198
 H          0.1302902017       -3.5049248412        1.0490345317
 C         -0.9045897005       -4.0748604722       -0.7423209967
 H         -0.8049992416       -4.8463545926       -1.5094700503
 H         -1.9324604398       -4.1039843780       -0.3719851976
 C         -0.6900867576       -2.6988970662       -1.3669954124
 H         -1.4025017072       -2.5804910840       -2.1873274374
 H         -0.9222318727       -1.9356009281       -0.6204950848
 C          0.7290503967       -2.4297898261       -1.8970643508
 H          1.1888486855       -3.3411133181       -2.2724833999
 H          0.6519951565       -1.7161127800       -2.7218347306
 H          1.6856108445       -5.7930724895        0.4450339080
 H          1.3972512535       -5.0631123292       -1.1190262019
 H          3.4365671216       -4.1452268352       -0.3576264387
 H          2.8671941402       -3.9857766389        1.2975651967
 O          3.0384913474       -1.7260844599        1.0147219074
 C          3.0808170038       -0.3447443943        1.0536219570
 O          3.7806742619        0.1262050798        1.9754204708
 H          0.4388581963        0.9718860092        1.6547257682
 C          0.1328196537        1.8402003800        1.0891741813
 C          1.0357583558        2.4577903612        0.2335909170
 C          0.6181840341        3.5810406598       -0.4700739002
 C         -0.6770597870        4.0512400424       -0.3373410998
 C         -1.5874041541        3.4007626651        0.4755457039
 C         -1.1763754952        2.2810683934        1.1892685994
 N         -2.0687151459        1.5612748469        2.0120198483
 S         -2.3819797036       -0.0276904005        1.5748569004
 O         -3.3608438276       -0.4937838205        2.5341006308
 O         -1.1509695722       -0.7714064506        1.5114318482
 C         -3.1529831758        0.0985652500       -0.0305021463
 C         -2.3892702211        0.4088929357       -1.1384145029
 C         -3.0266259479        0.5653153395       -2.3604978783
 C         -4.4008817533        0.4137425592       -2.4555381307
 C         -5.1524252632        0.1034053309       -1.3319874041
 C         -4.5249123595       -0.0507240302       -0.1070034336
 H         -5.0655687430       -0.2930177043        0.7937216200
 H         -6.2212357579       -0.0169690413       -1.4060014260
 H         -4.8876297090        0.5369225612       -3.4102271586
 H         -2.4335553452        0.8048617938       -3.2284407471
 H         -1.3182523757        0.5134710204       -1.0563885614
 H         -2.9476360761        2.0361465748        2.1689716991
 H         -2.6055008342        3.7505530153        0.5580754267
 H         -0.9868227639        4.9250099995       -0.8898862414
 H          1.3067837766        4.0859702269       -1.1276144188
 C          2.4263624405        1.8809413506        0.1276616862
 H          2.9785426223        2.1423934045        1.0428655613
 C          3.1973006436        2.3944341052       -1.0722064468
 C          4.0083432891        3.6506639637       -0.9735281630
 C          4.6935119839        2.3204957754       -1.0529659797
 H          5.2092288930        2.0563767309       -1.9639460566
 H          5.1561789821        1.9251206018       -0.1600120763
 H          4.0589250159        4.3015320677       -1.8334085042
 H          4.0181294493        4.1672595343       -0.0256294762
 H          2.6982145238        2.1767302490       -2.0095856682
 O          0.8607117974        0.3335354612       -1.7099701908
