  62
        -98.93435567
 C         -2.4352878021       -1.2500694316        0.0078125751
 C         -2.4463891618        0.0299783807       -0.5897448089
 C         -3.7671095647        0.6686871956       -0.7660223297
 C         -4.8679281566        0.0018355381       -0.3711588069
 C         -6.2993172093        0.4665039934       -0.4078885483
 C         -6.6215851709        1.4693427801        0.7126859622
 C         -5.5588695503        2.5408302119        0.9435031974
 H         -5.8458943821        3.1069651242        1.8335709776
 H         -4.6036378557        2.0590180954        1.1609003411
 C         -5.3757635218        3.5340575696       -0.2014701749
 H         -6.3203977596        4.0526590998       -0.3800973854
 H         -4.6451792723        4.2775894658        0.1273576771
 C         -4.8894107922        2.9449941068       -1.5269109923
 H         -5.6958126832        2.4360857490       -2.0479332725
 H         -4.5878960377        3.7818497766       -2.1638403546
 C         -3.6738808667        2.0295308468       -1.4131690304
 H         -3.2772071432        1.8508966691       -2.4203754775
 H         -2.8738436146        2.5579473493       -0.8816017146
 H         -6.7340498704        0.9084659328        1.6436183307
 H         -7.5776640384        1.9442608041        0.4870033008
 H         -6.5305479936        0.8844511836       -1.3829745571
 H         -6.9209314836       -0.4207364046       -0.2696135682
 O         -4.8068584257       -1.2392106368        0.1918521994
 C         -3.6086796480       -1.8916068686        0.4006003367
 O         -3.7137867034       -3.0132548825        0.9373410794
 H          1.5400248085       -1.3486670434       -0.2032156718
 C          1.1366578471       -0.9017417191        0.6889695077
 C         -0.1853896733       -1.1114663247        1.0477959843
 C         -0.6623785969       -0.5214740622        2.2158335833
 C          0.1560793555        0.2805331552        2.9862060391
 C          1.4674143274        0.5108479423        2.6089150490
 C          1.9604749248       -0.0891960617        1.4566801004
 N          3.3082315280        0.0866918246        1.0907517655
 S          3.7371448117        0.2744012541       -0.5315003165
 O          3.0607484929        1.4159834378       -1.1068726368
 O          3.5747365943       -0.9832011014       -1.2145531087
 C          5.4753146794        0.6252857603       -0.3353858211
 C          6.3328193213       -0.4279105463       -0.0792010534
 C          7.6809928109       -0.1652053948        0.1033317148
 C          8.1472348367        1.1390511678        0.0275001914
 C          7.2753641748        2.1853748234       -0.2327612988
 C          5.9251955733        1.9293444172       -0.4149152957
 H          5.2120455692        2.7097124961       -0.6273619958
 H          7.6411382227        3.1976452999       -0.2948099918
 H          9.1972121389        1.3409761017        0.1691587890
 H          8.3623970793       -0.9763536784        0.3031594992
 H          5.9261824639       -1.4247719188       -0.0380056776
 H          3.7575027859        0.8058065808        1.6430802049
 H          2.1038231223        1.1476506114        3.2047928778
 H         -0.2311706964        0.7386216950        3.8841320223
 H         -1.6909834435       -0.6938836840        2.5042776686
 C         -1.1197485313       -1.9719794396        0.2323850489
 H         -1.3621241054       -2.8690472770        0.8218671096
 C         -0.5329735445       -2.4076460561       -1.0940260443
 C          0.3296237740       -3.6299405749       -1.1736565409
 C         -1.0540238102       -3.6502497548       -1.7485824112
 H         -1.1692222490       -3.6580257636       -2.8220979033
 H         -1.8199913549       -4.2011331824       -1.2219336968
 H          1.1720540509       -3.6191054224       -1.8491282270
 H          0.5053923507       -4.1761882913       -0.2591797996
 H         -0.2876690511       -1.5686260402       -1.7368622158
 O         -1.4002349040        0.6298537704       -0.9564191571
