  62
        -98.94053852
 C         -2.3736935202       -0.7466998584       -0.1038816162
 C         -3.5365827846       -1.0404939246        0.6475599139
 C         -4.8039351134       -0.5818587040        0.0688136771
 C         -4.8037907364        0.0533465363       -1.1175230929
 C         -6.0174262288        0.5590589573       -1.8495252566
 C         -6.4935152385        1.9431562229       -1.3873015208
 C         -7.1689113263        1.9744809723       -0.0156772743
 H         -7.6427883074        2.9528335139        0.0856769231
 H         -7.9600069489        1.2247500761        0.0157969016
 C         -6.2118081396        1.7655205672        1.1661526970
 H         -5.1835714526        1.9293275374        0.8350439082
 H         -6.4205530013        2.5077372027        1.9399755865
 C         -6.3066957777        0.3881219557        1.8225612400
 H         -5.5618998854        0.3363502839        2.6209411119
 H         -7.2932610839        0.2644361530        2.2745821150
 C         -6.0570573634       -0.7853786947        0.8660320839
 H         -5.9276024373       -1.6922267767        1.4618025506
 H         -6.9121746531       -0.9201984429        0.2042535169
 H         -5.6391937137        2.6240068912       -1.3888628729
 H         -7.2089051027        2.3056622280       -2.1290269306
 H         -5.7383251066        0.6251209942       -2.9032451137
 H         -6.8313233052       -0.1595637848       -1.7496906098
 O         -3.6644723126        0.2993498564       -1.8184128215
 C         -2.4225620386       -0.0732874815       -1.3241930059
 O         -1.4643468626        0.2423246494       -2.0550163851
 O         -3.5152000318       -1.6535442062        1.7487693826
 C         -1.0239171207       -1.1795684729        0.4356232031
 C         -0.1122180280        0.0094171314        0.6130285442
 C         -0.5958263030        1.1417317763        1.2648271239
 C          0.2126890963        2.2436761028        1.4619532815
 C          1.5282540316        2.2350974147        1.0319969519
 C          2.0222613061        1.1100499951        0.3840364537
 C          1.2023807361        0.0087410732        0.1761963930
 H          1.6141097957       -0.8478856089       -0.3302087036
 N          3.3468254795        1.0734496801       -0.0800436421
 S          4.1776059692       -0.3951742072       -0.0229175731
 O          3.8647489554       -1.1597115909       -1.2038547515
 O          3.9410302583       -1.0491202417        1.2442186049
 C          5.8622349883        0.1844679600       -0.1126336473
 C          6.3829168768        0.5227421481       -1.3476263343
 C          7.6822356395        0.9992916872       -1.4186978773
 C          8.4350413840        1.1293887990       -0.2608741376
 C          7.8996478107        0.7843859725        0.9709314575
 C          6.6002455619        0.3082856944        1.0494071011
 H          6.1452384405        0.0193914351        1.9831600783
 H          8.4885246963        0.8833620395        1.8685410948
 H          9.4464676853        1.4993008839       -0.3196241561
 H          8.1028558689        1.2660095562       -2.3748199269
 H          5.7634761131        0.3961532145       -2.2203436352
 H          3.9090007864        1.8373319266        0.2694487999
 H          2.1626317101        3.0939136648        1.1906094159
 H         -0.1803698726        3.1151007363        1.9640622166
 H         -1.6200602542        1.1445760287        1.6131672138
 H         -1.2279700923       -1.6004239772        1.4324979720
 C         -0.4318093167       -2.2678323889       -0.4347419259
 C          0.5201040926       -3.2675390652        0.1486071777
 C         -0.8674382319       -3.6867057511       -0.2313036303
 H         -0.9978808788       -4.3155437994       -1.0991182071
 H         -1.5781324663       -3.8777770279        0.5594868675
 H          1.3497989186       -3.6010037501       -0.4573567653
 H          0.7589603313       -3.1767596283        1.1978779171
 H         -0.2600570048       -1.9377393882       -1.4539906640
