  62
        -98.94336871
 C         -2.2793114452       -0.6735472958        0.0753653709
 C         -3.1244440195       -0.1329988871        1.0820041588
 C         -3.9990416585        0.9752362901        0.6813983815
 C         -3.9504481300        1.4212508339       -0.5866920915
 C         -4.8182229019        2.5082702689       -1.1497845929
 C         -6.1073197823        1.9343847561       -1.7543125532
 C         -6.8400997935        0.9584210100       -0.8337570398
 H         -7.7483609612        0.6428006273       -1.3517082609
 H         -6.2232715353        0.0674086999       -0.6957664400
 C         -7.2090443077        1.5362765761        0.5397604771
 H         -7.1677573531        2.6255644556        0.5068161534
 H         -8.2393163175        1.2579559601        0.7712627663
 C         -6.3411438213        1.0312574524        1.6939373536
 H         -6.8193111648        1.3244013235        2.6323230939
 H         -6.3037186671       -0.0608029815        1.6734599080
 C         -4.9025358690        1.5622933072        1.7290268715
 H         -4.4672754125        1.2799538149        2.6919831575
 H         -4.9111175651        2.6521047346        1.6621837451
 H         -6.7686951812        2.7648075329       -2.0080403533
 H         -5.8527823081        1.4084511065       -2.6774441623
 H         -5.0592188082        3.2175862837       -0.3603606971
 H         -4.2590796440        3.0245082713       -1.9319847979
 O         -3.1235510684        0.8904192159       -1.5203589894
 C         -2.2727250630       -0.1648229461       -1.2232113975
 O         -1.5854566494       -0.5288944187       -2.1999956891
 O         -3.1467043428       -0.5653641955        2.2649068394
 C         -1.3834438215       -1.8272859927        0.4954658719
 C          0.0251393747       -1.3614455047        0.7807435983
 C          0.5743554050       -1.4918453021        2.0509322454
 C          1.8688816235       -1.0736594732        2.3045945098
 C          2.6388077294       -0.5124082298        1.3017070833
 C          2.0994751438       -0.3774061555        0.0289417756
 C          0.8043179342       -0.8073843032       -0.2247783373
 H          0.3883005072       -0.6953158450       -1.2151167408
 N          2.8550213208        0.2203558062       -0.9923984562
 S          4.4501656492       -0.2428070880       -1.2124681743
 O          4.7549147552        0.0856295843       -2.5878197037
 O          4.6666327232       -1.6156417743       -0.8179192985
 C          5.3605505800        0.8508236652       -0.1415054659
 C          6.2737529408        0.3347791613        0.7569902986
 C          6.9801296346        1.2072947814        1.5704516809
 C          6.7624664639        2.5728237715        1.4708962219
 C          5.8433946474        3.0753078978        0.5616455238
 C          5.1349988819        2.2087067515       -0.2551715650
 H          4.4133223179        2.5586462949       -0.9745666315
 H          5.6762329081        4.1378353763        0.4872143850
 H          7.3118964031        3.2500393243        2.1055715720
 H          7.6950599056        0.8188479423        2.2778273483
 H          6.4050539008       -0.7345371611        0.8039344445
 H          2.3648794693        0.2829346153       -1.8729921866
 H          3.6467233516       -0.1829782665        1.4940704084
 H          2.2825319695       -1.1814727949        3.2955913850
 H         -0.0254191625       -1.9140419471        2.8439326984
 H         -1.8104970044       -2.1885535067        1.4406963332
 C         -1.3763131358       -2.9764006409       -0.4942506869
 C         -0.9839928099       -4.3420069136       -0.0193167790
 C         -2.4105575443       -4.0536649174       -0.3771767579
 H         -2.8144993117       -4.4800218722       -1.2831450269
 H         -3.1299819176       -3.9706939058        0.4244965932
 H         -0.4030192001       -4.9685470077       -0.6786572620
 H         -0.7369488983       -4.4563097986        1.0252297963
 H         -1.0747691041       -2.6852360341       -1.4921321420
