  62
        -98.93771676
 C          1.9653774100        0.9286982707        0.0100143593
 C          2.3097460401       -0.0215596092        0.9961830594
 C          2.6436077400       -1.3741250393        0.5217050896
 C          2.5825560998       -1.6454401895       -0.7954885704
 C          2.8052529696       -2.9391549596       -1.5508361102
 C          3.5677398297       -4.0976295595       -0.9114610402
 C          5.0375831198       -3.8126569595       -0.6077249405
 H          5.4524492599       -4.6846301194       -0.0973544205
 H          5.5729411796       -3.6928154796       -1.5527532206
 C          5.3066280399       -2.5698424194        0.2372832693
 H          5.0206134399       -1.6765552694       -0.3217514708
 H          6.3845564400       -2.5100905294        0.4099836191
 C          4.6157438902       -2.5425076591        1.5998846694
 H          5.0340527603       -1.7035653391        2.1622270192
 H          4.8437468203       -3.4589945391        2.1471725695
 C          3.0870388902       -2.3564120491        1.5668822696
 H          2.5707830701       -3.3056121691        1.4402320098
 H          2.7736611604       -1.9419405990        2.5297473596
 H          3.5322735796       -4.9228664096       -1.6280048301
 H          3.0558732499       -4.4365413194       -0.0155257401
 H          3.3031769995       -2.6538725497       -2.4828629404
 H          1.8060256596       -3.2937806896       -1.8285599700
 O          2.2215152396       -0.6989995896       -1.7107457305
 C          1.9064326697        0.5977969805       -1.3419534206
 O          1.6049985096        1.3437859903       -2.2935147207
 O          2.3341882703        0.2467541810        2.2300074894
 C          1.6030026801        2.3380438007        0.4324612892
 C          0.2085544200        2.6996771907       -0.0195061006
 C         -0.1446766301        3.9890298706       -0.3987461007
 C         -1.4440197501        4.2760699606       -0.7796688706
 C         -2.4143568501        3.2922027806       -0.7898136602
 C         -2.0704268001        1.9966623607       -0.4161381401
 C         -0.7725807500        1.7165589507       -0.0226362003
 H         -0.5207019100        0.7089921907        0.2768511998
 N         -3.0238316401        0.9676750207       -0.4679640498
 S         -2.8142618100       -0.4463650892        0.4164091604
 O         -2.5642533997       -0.1412430890        1.8084269103
 O         -1.8373496201       -1.2759211193       -0.2455593397
 C         -4.4383017300       -1.1592827892        0.2325014408
 C         -4.7347162203       -1.8460225994       -0.9297348591
 C         -6.0069579303       -2.3710627794       -1.0920460188
 C         -6.9568821501       -2.2009660292       -0.0956359286
 C         -6.6444043599       -1.5115090591        1.0662834112
 C         -5.3739725499       -0.9831641890        1.2344281409
 H         -5.0819342997       -0.4478013389        2.1235016408
 H         -7.3836600998       -1.3836491989        1.8404512613
 H         -7.9460919101       -2.6107916892       -0.2247072884
 H         -6.2521169405       -2.9098952695       -1.9930340886
 H         -3.9607957404       -1.9588895395       -1.6713059792
 H         -3.9784401501        1.2976648707       -0.4548483497
 H         -3.4252864302        3.5159119406       -1.0936334901
 H         -1.7042878402        5.2819220306       -1.0723028807
 H          0.5991838299        4.7689079606       -0.3976149710
 H          1.6090324303        2.3241348009        1.5339304192
 C          2.6568480800        3.3164937906       -0.0480512411
 C          3.0182927201        4.5155833708        0.7753607986
 C          3.9727863201        3.3659535807        0.6671949486
 H          4.8727769600        3.4910360006        0.0841781084
 H          4.0929342503        2.7162991808        1.5221144487
 H          3.2671220401        5.4344351707        0.2661018484
 H          2.5000904303        4.6535409809        1.7124172887
 H          2.6699496298        3.4097234305       -1.1283835312
