  62
        -98.94155514
 C         -1.3225489958       -1.5320241429       -0.1367818261
 C         -2.4870753687       -1.1872892916        0.5816686671
 C         -3.1871323040        0.0389030591        0.1592557702
 C         -2.6988054759        0.7454117898       -0.8765179114
 C         -3.2108396066        2.0344691047       -1.4689760546
 C         -4.7310009167        2.1751377272       -1.6401339577
 C         -5.3663431870        3.1650553693       -0.6619181159
 H         -4.6933120366        4.0172513283       -0.5459613851
 H         -6.2954749227        3.5394020505       -1.0974498333
 C         -5.6992262042        2.5961163042        0.7160793872
 H         -6.5504496666        1.9170723409        0.6315982505
 H         -6.0086595211        3.4289129188        1.3519076074
 C         -4.5560713657        1.8508672336        1.4076201169
 H         -3.6113488604        2.3758829644        1.2632579660
 H         -4.7566656952        1.8505978579        2.4814016938
 C         -4.4145999988        0.3893402735        0.9553637552
 H         -4.3704498652       -0.2637156071        1.8326843265
 H         -5.3027504577        0.0834514291        0.3952530248
 H         -5.2057627957        1.1991106291       -1.5557734706
 H         -4.9166764229        2.5389504109       -2.6520403914
 H         -2.8233173422        2.8589608810       -0.8639401977
 H         -2.7198053036        2.1111466978       -2.4420461633
 O         -1.5774563749        0.3660838723       -1.5515496475
 C         -0.8481566039       -0.7482212050       -1.1863161744
 O          0.1764823252       -0.9429737857       -1.8693681969
 H          0.2759007733       -0.5150118369        1.5291805717
 C          1.1150729472       -1.1402945965        1.2605490458
 C          0.9001426749       -2.3463748735        0.6057295290
 C          2.0031326595       -3.1290299599        0.2860489709
 C          3.2833621849       -2.6992613546        0.5908412804
 C          3.4935146586       -1.4737352390        1.1960503955
 C          2.3961197196       -0.6885711786        1.5281133734
 N          2.5472340981        0.5873044376        2.1155505408
 S          2.0801623640        1.8851388430        1.1582601868
 O          2.4196590686        3.0627230293        1.9295125526
 O          0.6971818861        1.7484427000        0.7818419842
 C          3.1612259615        1.7749778386       -0.2567135109
 C          2.8608333942        0.8981085726       -1.2795805358
 C          3.7670589186        0.7584631065       -2.3207299295
 C          4.9463636016        1.4866016598       -2.3208541978
 C          5.2310612607        2.3642434215       -1.2851280883
 C          4.3342035846        2.5064059370       -0.2394734165
 H          4.5099781922        3.1772175089        0.5861431989
 H          6.1472242640        2.9325125220       -1.2875309246
 H          5.6460675862        1.3693810102       -3.1333314817
 H          3.5372459040        0.0744226778       -3.1218867009
 H          1.9349490795        0.3431701645       -1.2666537768
 H          3.4808095466        0.7621982087        2.4638623087
 H          4.4928141974       -1.1242211755        1.4079050036
 H          4.1293532436       -3.3184399033        0.3349478921
 H          1.8598522003       -4.0756587326       -0.2089196445
 C         -0.5186216316       -2.7477440123        0.2833116571
 H         -0.9955286150       -3.1125399313        1.2057514396
 C         -0.6074227024       -3.8309876791       -0.7728215264
 C         -0.5741628955       -5.2783040117       -0.3840910144
 C         -1.8542989862       -4.6580593336       -0.8542771090
 H         -2.2334444088       -4.9253700480       -1.8291680688
 H         -2.6266093015       -4.4581355577       -0.1258210634
 H         -0.0757366123       -5.9768461612       -1.0391709979
 H         -0.4833251181       -5.5127689281        0.6657301529
 H         -0.1397519619       -3.5375669366       -1.7061514440
 O         -2.9217179569       -1.8717143845        1.5499125363
