  62
        -98.93604007
 C         -2.3998784529       -1.0773966770        0.0526710141
 C         -2.2856807085        0.2289111354       -0.4835370953
 C         -3.1820522068        1.2383017597        0.0998816696
 C         -3.9992192003        0.9107842652        1.1159805527
 C         -4.9409955908        1.8386391368        1.8341128417
 C         -6.2942781954        2.0199925309        1.1329987698
 C         -6.2577635738        2.8608200853       -0.1437748305
 H         -7.2927113009        3.0868914155       -0.4079317048
 H         -5.7596701603        3.8089480331        0.0610418132
 C         -5.5838052207        2.1702268292       -1.3376331142
 H         -5.5201038478        1.0960408565       -1.1484375648
 H         -6.2003974679        2.3012226437       -2.2298072551
 C         -4.1881420379        2.6979801055       -1.6702224973
 H         -4.2574741541        3.7403509191       -1.9890335792
 H         -3.7920238639        2.1159520703       -2.5063887661
 C         -3.1855842565        2.6069863325       -0.5122859881
 H         -2.1854736956        2.7965912094       -0.9095394717
 H         -3.4121057835        3.3606524691        0.2413864456
 H         -6.7061611347        1.0333979407        0.9082883804
 H         -6.9664802781        2.5063372386        1.8436296855
 H         -5.1190894192        1.3986291684        2.8176454067
 H         -4.4665867877        2.8110397684        1.9689072674
 O         -4.0459609809       -0.3444573995        1.6361228912
 C         -3.2758363153       -1.3637651114        1.1049576214
 O         -3.4552656203       -2.4724787604        1.6474636960
 H          0.2770560035       -0.3246113529       -0.3572560300
 C          0.6075801121       -1.2212069625        0.1472217278
 C         -0.2381560395       -2.3213436820        0.1898230573
 C          0.2014168212       -3.4723616160        0.8316669074
 C          1.4564932484       -3.5167733825        1.4143074287
 C          2.2963460024       -2.4183904914        1.3701640646
 C          1.8658309943       -1.2631948914        0.7299772507
 N          2.7040966053       -0.1248795453        0.6846875758
 S          4.1899327079       -0.3354123170       -0.0956528598
 O          3.9804559432       -0.6955113082       -1.4819443271
 O          4.9879850263       -1.2511520567        0.6787375326
 C          4.8636788027        1.3082164229        0.0264815704
 C          4.7928480796        2.1585645348       -1.0597080525
 C          5.2997609216        3.4431107240       -0.9385400602
 C          5.8613551131        3.8529928652        0.2611542581
 C          5.9232633258        2.9875263196        1.3434630620
 C          5.4197583374        1.7018483490        1.2285250488
 H          5.4526875122        0.9925310826        2.0387696874
 H          6.3616610088        3.3103059411        2.2739533808
 H          6.2548723366        4.8530758659        0.3523775395
 H          5.2543184325        4.1173274774       -1.7787131586
 H          4.3536643315        1.7953075406       -1.9752320318
 H          2.2237446063        0.6471425532        0.2379179178
 H          3.2806178007       -2.4475532805        1.8075633259
 H          1.7852851385       -4.4174534851        1.9105311188
 H         -0.4510880741       -4.3322301554        0.8801100337
 C         -1.5966293496       -2.2628089170       -0.4598114448
 H         -2.1582271131       -3.1508443363       -0.1299835324
 C         -1.5311045426       -2.3111759492       -1.9819854052
 C         -0.2746351109       -2.1362748091       -2.7764884259
 C         -0.9041547363       -3.4903534099       -2.6653665458
 H         -1.3934477277       -3.9110363030       -3.5307130754
 H         -0.4082359121       -4.2177858606       -2.0399820251
 H         -0.3482363925       -1.6033585529       -3.7125222680
 H          0.6537737781       -1.9604085735       -2.2548222674
 H         -2.4356311464       -1.9173038542       -2.4348757780
 O         -1.4826332147        0.5621927252       -1.3938867144
