  62
        -98.93738391
 C          1.8495504597        1.4235860428        0.3342088300
 C          2.5457478717        0.8531741980       -0.7581254728
 C          3.7431794178        0.0663652304       -0.4187263693
 C          4.0961447627       -0.0708020929        0.8722616530
 C          5.2389204434       -0.9028872566        1.3810148629
 C          4.8495016696       -2.3950385915        1.3715670532
 C          5.6588955939       -3.2513858954        0.3975538457
 H          6.6515753907       -3.4249724601        0.8182149701
 H          5.1596063194       -4.2197580026        0.3210448635
 C          5.8406404778       -2.6715050073       -1.0085377728
 H          6.6344722972       -1.9231682182       -0.9972513510
 H          6.1907797881       -3.4867921970       -1.6451980303
 C          4.5907362349       -2.0511812946       -1.6465919787
 H          3.6847057399       -2.4758447930       -1.2130906502
 H          4.5858517384       -2.3126291523       -2.7067769389
 C          4.5240427748       -0.5145565661       -1.5648660894
 H          5.5381129462       -0.1052886456       -1.5612359178
 H          4.0210186635       -0.1404163532       -2.4615830007
 H          4.9708982719       -2.8097910800        2.3734658185
 H          3.7875680568       -2.4711486144        1.1273114066
 H          6.1196959483       -0.7332116505        0.7658594425
 H          5.4537883338       -0.5731874568        2.3977304463
 O          3.3888159517        0.4779015237        1.8947745288
 C          2.2499962097        1.2297373763        1.6550256507
 O          1.6872982718        1.6562989849        2.6844569931
 H         -0.1898931368       -0.1718782395        0.7970168308
 C         -0.7314246135        0.1661480918       -0.0785268762
 C         -0.4463910892        1.4210439108       -0.6040165054
 C         -1.1612323741        1.8505890947       -1.7137271162
 C         -2.1087230217        1.0274959887       -2.2992115423
 C         -2.3718458524       -0.2294964501       -1.7883675371
 C         -1.6778937215       -0.6599625016       -0.6637995330
 N         -1.9526467892       -1.9268713847       -0.1214977676
 S         -3.5563496066       -2.3803723664        0.0340120542
 O         -3.5817830435       -3.3052042997        1.1456844866
 O         -4.0379070123       -2.8969957211       -1.2228709681
 C         -4.4329840929       -0.8811711818        0.4437980092
 C         -5.4333843719       -0.4189612755       -0.3867143697
 C         -6.0799256734        0.7633766295       -0.0635940079
 C         -5.7131374284        1.4615556699        1.0761691837
 C         -4.7081919857        0.9822494584        1.9027554123
 C         -4.0604644598       -0.2005708643        1.5861401589
 H         -3.2778934087       -0.6003462709        2.2115328969
 H         -4.4230481768        1.5260285603        2.7892003482
 H         -6.2126268783        2.3846714815        1.3243072035
 H         -6.8631198228        1.1374692150       -0.7029199028
 H         -5.6834811307       -0.9916265478       -1.2648997610
 H         -1.4284896986       -2.1389610269        0.7141681580
 H         -3.0923711237       -0.8885907873       -2.2447777809
 H         -2.6472893119        1.3690460351       -3.1697128967
 H         -0.9695339585        2.8259548033       -2.1288748079
 C          0.6041019375        2.2563871191        0.0876324252
 H          0.2200650528        2.5268722683        1.0822076140
 C          0.9609045382        3.5255453537       -0.6572438165
 C          0.1419049384        4.7660753880       -0.4693728160
 C          1.5188938485        4.6815612947        0.1153874050
 H          2.3087073183        5.2670278211       -0.3308378242
 H          1.6173434601        4.5615239050        1.1847955887
 H         -0.0128135849        5.4155121789       -1.3176681534
 H         -0.6981188467        4.7133172784        0.2063645092
 H          1.3817892812        3.3292419807       -1.6363994348
 O          2.1888723971        0.9933639892       -1.9564655395
