  62
        -98.94578989
 C         -2.1900201791       -1.1707855290        0.1978815639
 C         -1.8588460813       -0.2477847767       -0.8241416035
 C         -2.6323194075        1.0041998771       -0.8282422081
 C         -3.5820632265        1.1976143759        0.1051526846
 C         -4.4188834861        2.4370568137        0.2347443268
 C         -3.7645719270        3.4580693350        1.1757231569
 C         -2.2930969238        3.7291822541        0.8622744972
 H         -1.9419915299        4.4850927086        1.5683183041
 H         -1.7153144213        2.8215108004        1.0538212581
 C         -2.0282062897        4.2054816909       -0.5729096732
 H         -1.3326199972        5.0467103485       -0.5388259064
 H         -2.9547564093        4.5688829594       -1.0186283841
 C         -1.4039747918        3.1483712740       -1.4855250718
 H         -1.0610241914        3.6479443955       -2.3953584709
 H         -0.5246649262        2.7234016153       -0.9955373698
 C         -2.3286052449        2.0008923754       -1.9120656163
 H         -3.2520315775        2.4105252259       -2.3263920939
 H         -1.8206555660        1.4368347548       -2.6998335080
 H         -3.8339647248        3.0816444466        2.1991521180
 H         -4.3277238205        4.3912732845        1.1192906013
 H         -4.5629928637        2.8762255363       -0.7504925320
 H         -5.3909846861        2.1532466178        0.6415635005
 O         -3.8613827564        0.2923614073        1.0780241223
 C         -3.1728238357       -0.9088407651        1.1513485029
 O         -3.5187237633       -1.6435036201        2.0995228613
 H         -0.1702538111       -0.6342083235        1.6589326911
 C          0.5209326512       -1.2975054298        1.1524594499
 C          0.0189768916       -2.3301519903        0.3710923349
 C          0.9213658409       -3.1716944721       -0.2679028992
 C          2.2850378340       -2.9803686792       -0.1256612928
 C          2.7799065299       -1.9448350890        0.6448067000
 C          1.8860895285       -1.0927724304        1.2814112647
 N          2.3785343386       -0.0161578522        2.0380016089
 S          3.6329248966        0.8802042155        1.3828404631
 O          4.8908180967        0.2623936320        1.7245899120
 O          3.4405584361        2.2227312591        1.8872663742
 C          3.4086440884        0.8337808971       -0.3870938421
 C          2.1688572188        1.1471351406       -0.9062976770
 C          1.9781392950        1.0888854371       -2.2763315993
 C          3.0321242956        0.7302241827       -3.1023836750
 C          4.2758524614        0.4307389360       -2.5684146105
 C          4.4676589499        0.4766488589       -1.1969115261
 H          5.4124820814        0.2353401440       -0.7373614431
 H          5.0930073827        0.1529004904       -3.2144905840
 H          2.8784372257        0.6808100231       -4.1687660598
 H          1.0016340285        1.2960092006       -2.6827935595
 H          1.3615498028        1.4163211510       -0.2431556729
 H          1.6604725907        0.5841081116        2.4155753961
 H          3.8386459412       -1.7816139477        0.7664549429
 H          2.9728189204       -3.6445211729       -0.6258607536
 H          0.5558410728       -3.9795377003       -0.8799092834
 C         -1.4768061131       -2.5082282836        0.2696471508
 H         -1.8232162126       -2.9873540139        1.1978228159
 C         -1.8942893246       -3.3702562340       -0.9057725419
 C         -2.0027179994       -4.8574664348       -0.7590170662
 C         -3.2422000948       -4.0236272516       -0.8753047754
 H         -3.8151293136       -4.0703659458       -1.7892298088
 H         -3.8446357721       -3.8724197824        0.0090952905
 H         -1.7710527347       -5.2848815122        0.2049636498
 H         -1.7272218852       -5.4802745153       -1.5967787053
 H         -1.5532733974       -2.9708765273       -1.8539556965
 O         -0.9696063200       -0.4547472997       -1.6877770837
