  62
        -98.93892946
 C          2.1792086802        1.0239354300        0.4675378412
 C          2.3451326705        0.2346439002       -0.6940957289
 C          3.1556393206       -0.9883172398       -0.5419112889
 C          3.6407851704       -1.3064632699        0.6706255111
 C          4.5254594904       -2.4684896699        1.0289253011
 C          6.0075383004       -2.0596098798        0.9770188214
 C          6.6667561306       -2.1977529596       -0.3946845185
 H          7.6634480906       -1.7567554395       -0.3214214782
 H          6.7933251907       -3.2573113295       -0.6264982186
 C          5.9181275408       -1.5306143694       -1.5514190785
 H          5.5585526107       -0.5483647795       -1.2397225184
 H          6.6302087609       -1.3718178493       -2.3634694983
 C          4.7459273809       -2.3724692495       -2.0775645788
 H          4.8187331009       -3.3803797695       -1.6693278990
 H          4.8292943012       -2.4715003993       -3.1617999888
 C          3.3490468209       -1.8004109896       -1.7933267690
 H          2.6190436309       -2.6174892997       -1.7935131993
 H          3.0578870609       -1.1275759595       -2.6062643490
 H          6.5654421703       -2.6770337699        1.6838759014
 H          6.0808356102       -1.0239812599        1.3186391616
 H          4.2761163802       -2.7442059001        2.0558584110
 H          4.3275131706       -3.3175412498        0.3814017809
 O          3.4138450501       -0.5416870101        1.7750087112
 C          2.6860250800        0.6319282098        1.7053091512
 O          2.5522715298        1.2223980697        2.7972451713
 O          1.8509624607        0.5368450603       -1.8115561189
 C          1.3768466601        2.3122870799        0.4060588612
 C         -0.0445393998        2.0000707599        0.0032174209
 C         -0.7040739496        2.6200397300       -1.0488033591
 C         -2.0019474395        2.2596792299       -1.3695546994
 C         -2.6709387696        1.2891691198       -0.6472311497
 C         -2.0225497097        0.6674086297        0.4124078304
 C         -0.7226304398        1.0279568797        0.7292152407
 H         -0.2145110199        0.5391099996        1.5525321107
 N         -2.7001419798       -0.3060912005        1.1691484701
 S         -3.4400672996       -1.5698123304        0.3458270698
 O         -3.5173154597       -2.6491591806        1.3069903096
 O         -2.7663411493       -1.8649601802       -0.8976323001
 C         -5.0825651295       -0.9604352405        0.0263969996
 C         -5.8243784998       -0.4961894707        1.0950856195
 C         -7.1069875698       -0.0252265308        0.8644630393
 C         -7.6245505095       -0.0299798506       -0.4224374508
 C         -6.8685053993       -0.5031442004       -1.4838877807
 C         -5.5838532593       -0.9741860404       -1.2604455905
 H         -4.9557969991       -1.3443410202       -2.0551594205
 H         -7.2722557391       -0.5063106103       -2.4835787308
 H         -8.6230230695        0.3375117993       -0.5991597509
 H         -7.6976330500        0.3437468991        1.6874173693
 H         -5.3862926400       -0.5128742208        2.0789970696
 H         -2.1571780799       -0.6629031906        1.9425171701
 H         -3.6794532295        1.0037453297       -0.8979344399
 H         -2.5000763894        2.7430216700       -2.1960062494
 H         -0.1989795696        3.3760355701       -1.6266289689
 H          1.3581575799        2.7051476498        1.4332342513
 C          2.0604917202        3.3224508901       -0.4903039685
 C          1.8393688301        4.7884265801       -0.2735025983
 C          3.1573848201        4.1690704401        0.0792503318
 H          4.0144385102        4.3873721903       -0.5400167380
 H          3.3980450799        4.0327327900        1.1238486818
 H          1.7939374202        5.4365081702       -1.1355041982
 H          1.1852814299        5.0804357599        0.5339908616
 H          2.1814706404        2.9645829303       -1.5059913785
