  62
        -98.93738140
 C          1.8483688283        1.4284373270        0.3330257524
 C          2.5457424134        0.8560157197       -0.7575361327
 C          3.7383521020        0.0633849823       -0.4148649805
 C          4.0863023534       -0.0765907112        0.8771989147
 C          5.2220412337       -0.9163762634        1.3890621263
 C          4.8223871807       -2.4058354378        1.3771780478
 C          5.6290814896       -3.2671340205        0.4052806072
 H          6.6189519485       -3.4483418154        0.8293315556
 H          5.1230403160       -4.2317702832        0.3259914236
 C          5.8200360772       -2.6872032047       -0.9995541734
 H          6.1672701006       -3.5041958665       -1.6356056362
 H          6.6187032088       -1.9441004010       -0.9844921648
 C          4.5766729844       -2.0581675719       -1.6418476501
 H          4.5741090686       -2.3185795552       -2.7022950407
 H          3.6662220801       -2.4773006956       -1.2122164808
 C          4.5196597025       -0.5212206604       -1.5588124033
 H          5.5363143370       -0.1184915345       -1.5510947767
 H          4.0222663113       -0.1429828781       -2.4569484060
 H          3.7607843932       -2.4744361690        1.1292064809
 H          4.9374206592       -2.8221449953        2.3791803583
 H          6.1058808594       -0.7522139459        0.7768411932
 H          5.4358403202       -0.5888921193        2.4067122818
 O          3.3790136130        0.4756659979        1.8977663992
 C          2.2441068878        1.2325944227        1.6549261603
 O          1.6802562294        1.6611852129        2.6828606438
 H         -0.1822481629       -0.1706783714        0.7787342845
 C         -0.7276146429        0.1730358229       -0.0921943133
 C         -0.4459061126        1.4317536382       -0.6101188179
 C         -1.1659119345        1.8682106145       -1.7138578829
 C         -2.1154506400        1.0484355925       -2.3005982058
 C         -2.3752563495       -0.2123654746       -1.7973571349
 C         -1.6757119879       -0.6500896889       -0.6791544923
 N         -1.9457252380       -1.9213206500       -0.1445833295
 S         -3.5472408986       -2.3797743128        0.0156071491
 O         -3.5637418959       -3.3177219980        1.1163483931
 O         -4.0361628607       -2.8819565473       -1.2442374570
 C         -4.4229172716       -0.8868924017        0.4493376005
 C         -4.0479206101       -0.2243277894        1.6014422190
 C         -4.6934040635        0.9544540448        1.9370419598
 C         -5.6984772602        1.4479786395        1.1190108345
 C         -6.0676890883        0.7678981474       -0.0308737799
 C         -5.4235039301       -0.4104330668       -0.3728314056
 H         -5.6758218110       -0.9692318075       -1.2592688011
 H         -6.8509789964        1.1530337802       -0.6634915998
 H         -6.1961688111        2.3679937702        1.3818579975
 H         -4.4063953120        1.4840683414        2.8314309236
 H         -3.2653688254       -0.6351410627        2.2196506146
 H         -1.4162868164       -2.1388152198        0.6863276682
 H         -3.0973400736       -0.8687457244       -2.2551679148
 H         -2.6583325616        1.3955223866       -3.1662192148
 H         -0.9767593517        2.8465702734       -2.1231415084
 C          0.6058303707        2.2643985662        0.0830493943
 H          0.2202912479        2.5369317419        1.0765210343
 C          0.9678662982        3.5318625846       -0.6622578039
 C          0.1553923301        4.7765817825       -0.4738242342
 C          1.5323332820        4.6850261276        0.1099706997
 H          2.3248784977        5.2664364675       -0.3367100664
 H          1.6308199072        4.5643900046        1.1793154089
 H         -0.6843806791        4.7282895995        0.2025736563
 H          0.0034944923        5.4267677164       -1.3220654378
 H          1.3869408294        3.3334040159       -1.6417536424
 O          2.1930692955        0.9983763758       -1.9568769157
