  62
        -98.94210410
 C         -0.8533048049       -1.2010851685        0.7107838230
 C         -1.4432884371       -1.0117378706       -0.5599083031
 C         -2.2682630850        0.1989498849       -0.7258654033
 C         -2.4028578634        1.0560538729        0.3027703765
 C         -3.1307580683        2.3812828760        0.4060575078
 C         -4.1777780720        2.7809411880       -0.6305460060
 C         -5.4361061732        1.9145454600       -0.6399924796
 H         -5.9841654753        2.0851809088        0.2899268374
 H         -6.0696840919        2.2459202821       -1.4656562907
 C         -5.1996830018        0.4118271003       -0.7687099974
 H         -6.1762103891       -0.0795072458       -0.7870732959
 H         -4.6717049917        0.0454308190        0.1139280896
 C         -4.4366846643       -0.0250239280       -2.0183307687
 H         -4.4937635691       -1.1153305666       -2.0738045093
 H         -4.9228901777        0.3803979102       -2.9077643919
 C         -2.9460152610        0.3589625046       -2.0550226009
 H         -2.4340264568       -0.3219468530       -2.7416770319
 H         -2.8000900882        1.3667203585       -2.4386541328
 H         -3.7328450650        2.8146777967       -1.6209970054
 H         -4.4822504994        3.8024124559       -0.3858602877
 H         -3.5910701371        2.3895393573        1.3992043443
 H         -2.3515752197        3.1523649518        0.4180232476
 O         -1.7899156287        0.8420748822        1.5046510085
 C         -1.0006054386       -0.2707847536        1.7361165966
 O         -0.4944139231       -0.3149475047        2.8753482209
 H          1.4810644894       -0.2804024992        0.3181479924
 C          1.8434552510       -1.1595782588       -0.1946567203
 C          1.2099804054       -2.3771762464        0.0185761887
 C          1.6975881630       -3.5013451656       -0.6349057122
 C          2.7743477075       -3.3944524189       -1.4985332017
 C          3.3758749503       -2.1724805753       -1.7374218755
 C          2.9017354739       -1.0432248637       -1.0794494039
 N          3.4888103455        0.2167678839       -1.2740560333
 S          2.5114398749        1.5746461288       -1.3318678609
 O          1.2316013783        1.2971663362       -1.9405310453
 O          3.3268617404        2.5687916121       -2.0001790399
 C          2.2997082344        2.0584056241        0.3668423595
 C          1.0391475666        2.4089664812        0.8062577559
 C          0.8700910774        2.8023849859        2.1235493604
 C          1.9644291374        2.8419948664        2.9731505124
 C          3.2264479151        2.4952432363        2.5147318271
 C          3.4010729865        2.1004258725        1.1980861402
 H          4.3647550606        1.8199760197        0.8069241826
 H          4.0728773674        2.5268541975        3.1818010567
 H          1.8279914998        3.1401465296        4.0005828166
 H         -0.1145137701        3.0556097776        2.4831752732
 H          0.2146042263        2.3432052212        0.1121731940
 H          4.2150081638        0.2468978818       -1.9751716655
 H          4.2012126622       -2.0883548476       -2.4279517896
 H          3.1414038630       -4.2742911865       -2.0049751047
 H          1.2295891269       -4.4590768571       -0.4764430516
 C          0.0354771844       -2.4041575501        0.9672693645
 H          0.4223160514       -2.2821625832        1.9901293988
 C         -0.7686962593       -3.6856304540        0.8986793175
 C         -0.3744071418       -4.8717840810        1.7252197647
 C         -1.5964823783       -4.0821460587        2.0829148875
 H         -2.5670924664       -4.5221623347        1.9098873286
 H         -1.5568356739       -3.4401107114        2.9510605232
 H         -0.5086497529       -5.8585251508        1.3081870927
 H          0.4936691770       -4.7735823046        2.3592809129
 H         -1.1870336705       -3.8606169436       -0.0858553909
 O         -1.2928895633       -1.8156706756       -1.5171075266
