  62
        -98.94753140
 C          1.3274860532        1.6342951575       -0.4981953489
 C          1.1920179638        0.3245482421       -1.0230728881
 C          2.3815037924       -0.5360399992       -0.9171500495
 C          3.5063378841       -0.0554491942       -0.3598764273
 C          4.7767388875       -0.8313659171       -0.1670766990
 C          4.8186265918       -1.5080787249        1.2092470124
 C          3.5546535343       -2.2987041296        1.5476893646
 H          3.7158256240       -2.7717287298        2.5192194930
 H          2.7143758176       -1.6095081901        1.6661598169
 C          3.1790872537       -3.3691769785        0.5141273358
 H          2.9034500215       -4.2832537329        1.0446804177
 H          4.0418915409       -3.6032540491       -0.1113237710
 C          1.9892256572       -2.9942597910       -0.3718081524
 H          1.1708840048       -2.6396697077        0.2615582844
 H          1.6503244628       -3.9008541717       -0.8823674743
 C          2.2644325879       -1.9365331453       -1.4490523966
 H          3.1568999257       -2.2114399087       -2.0157794053
 H          1.4100261025       -1.9255543069       -2.1321527921
 H          5.6838086364       -2.1731910599        1.2407248113
 H          4.9539749563       -0.7373385987        1.9715619253
 H          4.8616703332       -1.5787351509       -0.9534992207
 H          5.6156945018       -0.1374716103       -0.2452521144
 O          3.6037999879        1.2077228553        0.1273958202
 C          2.5205999514        2.0673385374        0.0882698059
 O          2.7452948733        3.1890046579        0.5885722501
 H         -1.2442416065        0.4471428919        0.0237050468
 C         -1.3937660705        1.2023426071        0.7767129724
 C         -0.7256377341        2.4132546617        0.6704663586
 C         -0.9208265070        3.3735458970        1.6561085739
 C         -1.7585487563        3.1179867146        2.7276501695
 C         -2.4019660967        1.8988361486        2.8444676012
 C         -2.2113420245        0.9324230923        1.8630544505
 N         -2.8538421482       -0.3114026889        1.9318020262
 S         -2.0882207551       -1.6792432691        1.3390508992
 O         -2.7791713871       -2.7793344257        1.9848432181
 O         -0.6621955017       -1.6322141580        1.5675422452
 C         -2.4773681370       -1.7266943377       -0.3975496177
 C         -3.5157414814       -0.9692023220       -0.8993308727
 C         -3.8162856443       -1.0594975415       -2.2490378003
 C         -3.0834971074       -1.9038247402       -3.0678777710
 C         -2.0502559192       -2.6646170231       -2.5454380275
 C         -1.7441177264       -2.5782668725       -1.1974685073
 H         -0.9403012071       -3.1448169146       -0.7563790275
 H         -1.4764349897       -3.3185668575       -3.1827637333
 H         -3.3149364348       -1.9660590018       -4.1197708966
 H         -4.6176483415       -0.4649158857       -2.6580260332
 H         -4.0605335029       -0.3116102716       -0.2422353958
 H         -3.3583592001       -0.4975330381        2.7857491118
 H         -3.0418964074        1.6927059097        3.6890168764
 H         -1.9021783555        3.8709727314        3.4878297669
 H         -0.3968541706        4.3157718308        1.5879509900
 C          0.2031771240        2.6608074578       -0.4936369390
 H          0.6895673365        3.6329121920       -0.3346100222
 C         -0.5699660896        2.7177904551       -1.7970452146
 C         -1.3281984742        3.9644532385       -2.1359698560
 C         -0.0865938919        3.6111956867       -2.8976389525
 H         -0.1825115676        3.2690465391       -3.9169505621
 H          0.8070064500        4.1907018221       -2.7148359991
 H         -1.2764263913        4.7874079649       -1.4391526542
 H         -2.2808736906        3.8674833401       -2.6330328361
 H         -1.0036217361        1.7683176591       -2.0809041789
 O          0.1506773637       -0.1246480205       -1.5707339034
