  62
        -98.94023093
 C          2.4495073357        0.9463669431       -0.0218132285
 C          2.6159879963       -0.4319296628        0.2551790832
 C          3.9771910930       -0.8456028461        0.6197831801
 C          4.9581418184        0.0718974858        0.6985515492
 C          6.3892720079       -0.1920225284        1.0813907642
 C          7.2684666102       -0.6725642018       -0.0813189896
 C          7.0092431946       -2.1070663895       -0.5431988544
 H          7.8316960370       -2.3837257086       -1.2057875531
 H          7.0445201977       -2.7765468356        0.3167274285
 C          5.6846477569       -2.3008129969       -1.2945453074
 H          5.3069327185       -1.3302966104       -1.6247384050
 H          5.8589710231       -2.8978253375       -2.1925812834
 C          4.5946639564       -3.0057711262       -0.4869414313
 H          4.9065608667       -4.0286297432       -0.2643685708
 H          3.6911258649       -3.0550801358       -1.1002042621
 C          4.2338076463       -2.3072196286        0.8306201629
 H          3.3124877118       -2.7523251081        1.2143380203
 H          5.0264766975       -2.4538562664        1.5639036275
 H          7.1376338248        0.0107457504       -0.9235228230
 H          8.3082427107       -0.6014889443        0.2460563400
 H          6.7916659871        0.7544032728        1.4487354912
 H          6.4230418145       -0.9220263322        1.8905062443
 O          4.7482122417        1.3929925036        0.4515646340
 C          3.5005415449        1.8583274396        0.0701330869
 O          3.4531462790        3.0869982705       -0.1443882482
 H         -1.4068742012        0.3028097385       -0.7053490070
 C         -1.1606839344        0.5632766006        0.3100649479
 C          0.0569094064        1.1484124968        0.6162824676
 C          0.3275939802        1.4683924705        1.9447718613
 C         -0.5941388362        1.2003469822        2.9375738771
 C         -1.8117566239        0.6202283797        2.6269827684
 C         -2.0915750079        0.2965323543        1.3051919966
 N         -3.3058756781       -0.3190574420        0.9626152166
 S         -4.0106741313        0.0362247152       -0.5284137949
 O         -3.3977131634       -0.7775304837       -1.5476448973
 O         -3.9980333412        1.4638607088       -0.7564901208
 C         -5.6767326077       -0.5283858204       -0.2331519906
 C         -5.9383153837       -1.8836875750       -0.3085463386
 C         -7.2233343427       -2.3331815097       -0.0500471097
 C         -8.2201225099       -1.4256740667        0.2771683368
 C         -7.9433669441       -0.0685973690        0.3460384669
 C         -6.6595855100        0.3876638807        0.0907029465
 H         -6.3994841256        1.4334183291        0.1251685635
 H         -8.7212217953        0.6344230376        0.5970319732
 H         -9.2196336800       -1.7783978787        0.4766629573
 H         -7.4428621241       -3.3872261055       -0.1054800420
 H         -5.1345817861       -2.5498359412       -0.5759295691
 H         -3.9834282847       -0.3001328950        1.7123068316
 H         -2.5335140243        0.4120758118        3.4021918189
 H         -0.3670928978        1.4518936223        3.9628270460
 H          1.2766763536        1.9287746927        2.1861902328
 C          1.0886221941        1.4743088407       -0.4363352684
 H          1.1865772845        2.5693450763       -0.4858930689
 C          0.7267507639        0.9578617708       -1.8132188997
 C         -0.2071331160        1.7364595586       -2.6885445335
 C          1.2519414104        1.6672934780       -3.0233403749
 H          1.5588356652        1.0782025537       -3.8745281082
 H          1.8571455495        2.5469196225       -2.8576999871
 H         -0.9090094163        1.1925368695       -3.3035253823
 H         -0.5994630459        2.6643285905       -2.2995324401
 H          0.6733896980       -0.1248350432       -1.8514449596
 O          1.6813535624       -1.2733054430        0.2051852859
