  62
        -98.94008172
 C         -2.6362458742       -1.1423278186        0.2682939163
 C         -2.5648560054       -0.3019549274       -0.8706360522
 C         -3.4129263960        0.9006476099       -0.8329898736
 C         -4.1822910790        1.1384196443        0.2437819761
 C         -5.0429270718        2.3530263962        0.4341760284
 C         -4.2741337114        3.4682201103        1.1570299361
 C         -2.8949776709        3.7544060482        0.5621851385
 H         -2.4586644868        4.5759438387        1.1347433418
 H         -2.2531481380        2.8828634232        0.7129826106
 C         -2.9090002520        4.1202162077       -0.9287378555
 H         -2.2533103221        4.9795407746       -1.0838241452
 H         -3.9140690515        4.4220113111       -1.2255983420
 C         -2.4175572084        3.0102209740       -1.8599339040
 H         -1.4509434360        2.6376676739       -1.5106964672
 H         -2.2620998823        3.4430880017       -2.8515534369
 C         -3.3621497242        1.8131187635       -2.0259861141
 H         -4.3622148726        2.1653061782       -2.2863089517
 H         -2.9837639205        1.2051059934       -2.8528009235
 H         -4.8784689736        4.3767489108        1.1320805304
 H         -4.1423786781        3.1767888222        2.2018726841
 H         -5.3868689722        2.7042580860       -0.5366206013
 H         -5.9082680451        2.0715209108        1.0365854442
 O         -4.2176363384        0.3139482651        1.3227026347
 C         -3.4302501181       -0.8252741000        1.3726234593
 O         -3.5183019210       -1.4604027093        2.4433221706
 H         -0.2326849084       -0.4913753130        1.3768895689
 C          0.2918689505       -1.0431272576        0.6045438594
 C         -0.3652772669       -2.0834412507       -0.0424916560
 C          0.3192813022       -2.7873507341       -1.0233429866
 C          1.6188049794       -2.4428165635       -1.3532626104
 C          2.2607271443       -1.3948041259       -0.7206847262
 C          1.5878710775       -0.6869655101        0.2670512956
 N          2.2224405335        0.3948993555        0.9027063335
 S          3.7676424207        0.1675007012        1.5172633695
 O          3.9831501929       -1.2052846053        1.9126778987
 O          3.9094381292        1.1647879144        2.5559971361
 C          4.8379763816        0.5895841317        0.1589285176
 C          4.6770343365        1.8256366865       -0.4357686740
 C          5.5076272983        2.1745036957       -1.4885769185
 C          6.4817996356        1.2881974523       -1.9237195684
 C          6.6331448619        0.0525507197       -1.3134446549
 C          5.8045437478       -0.3032694505       -0.2604974141
 H          5.8809974315       -1.2553383261        0.2401046136
 H          7.3910529442       -0.6347745165       -1.6533236518
 H          7.1267090228        1.5625952744       -2.7435201665
 H          5.3923234474        3.1343351427       -1.9658749559
 H          3.9098729246        2.4857314778       -0.0664527260
 H          1.6390566466        0.8714998768        1.5748072987
 H          3.2687048059       -1.1183840930       -0.9834849425
 H          2.1365823571       -2.9942920627       -2.1232000944
 H         -0.1706752421       -3.5914384799       -1.5468671197
 C         -1.7801243713       -2.3919014425        0.3859586326
 H         -1.7564126802       -2.6179178855        1.4657454192
 C         -2.3658692615       -3.6194085859       -0.2959782205
 C         -3.8442351020       -3.7576087165       -0.5017424951
 C         -2.9381477238       -3.5713917393       -1.6795856809
 H         -2.7700483622       -4.4155209258       -2.3323821859
 H         -2.9372354820       -2.6195524975       -2.1858266865
 H         -4.4718720072       -2.9313848093       -0.2000155065
 H         -4.2941893511       -4.7262168847       -0.3429021446
 H         -1.8367362085       -4.5257139447       -0.0173264320
 O         -1.8351889831       -0.5279816420       -1.8687438030
