  62
        -98.94891580
 C         -1.0461762713       -1.6942526101        0.2083767198
 C         -0.2477683694       -2.5640850017       -0.5689234584
 C          1.1520958519       -2.7004532879       -0.1471721340
 C          1.5885472390       -2.0087361602        0.9211411549
 C          2.9878747804       -2.0630551938        1.4615574658
 C          3.8755880417       -0.9644087261        0.8642610097
 C          3.8012399114       -0.8607487851       -0.6591901900
 H          2.8075598745       -0.5129225322       -0.9549996177
 H          4.5072882214       -0.0849227412       -0.9665924441
 C          4.1307300655       -2.1631917449       -1.4022130174
 H          4.6855104251       -2.8348787942       -0.7453955008
 H          4.7798755621       -1.9248526437       -2.2476213340
 C          2.9161023238       -2.8982641698       -1.9722420451
 H          2.2951042438       -2.1917628350       -2.5302393729
 H          3.2753211190       -3.6498689459       -2.6808548143
 C          2.0291816612       -3.6194432135       -0.9489774958
 H          1.3500957614       -4.2763281185       -1.5007287913
 H          2.6483830837       -4.2373659355       -0.2950771910
 H          4.9077674339       -1.1551587529        1.1650533188
 H          3.5649085848       -0.0065023927        1.2843714603
 H          2.9394393134       -1.9267852651        2.5433939372
 H          3.4109644888       -3.0429520436        1.2477226204
 O          0.7979912788       -1.1643909038        1.6316279662
 C         -0.5322181142       -0.9733061391        1.2865001087
 O         -1.1380223967       -0.1583722787        2.0063067542
 H         -0.8100872242        0.3038636538       -1.2262481296
 C         -1.7629416027        0.7530117095       -0.9924345442
 C         -2.7736096214       -0.0243105687       -0.4446422555
 C         -3.9985121839        0.5757907826       -0.1765735287
 C         -4.1897322398        1.9222451462       -0.4347488337
 C         -3.1645353346        2.7026215946       -0.9379971420
 C         -1.9357440971        2.1096883908       -1.2109036271
 N         -0.8631098281        2.8701529542       -1.7030640807
 S          0.7282248353        2.5324886328       -1.3564946864
 O          1.4500912501        3.6635564683       -1.9024357991
 O          1.1046552162        1.2452306851       -1.8887508581
 C          0.9699224896        2.5357794328        0.4154211501
 C          2.2840862501        2.3929680326        0.8185102658
 C          2.5844150391        2.4115719196        2.1698612612
 C          1.5655892506        2.5679726229        3.0972751919
 C          0.2545485890        2.7147902775        2.6783875456
 C         -0.0517244349        2.7045653951        1.3255341862
 H         -1.0737527555        2.8014317014        0.9990278249
 H         -0.5415020733        2.8247469173        3.3965223390
 H          1.7955308843        2.5725589487        4.1511326617
 H          3.6071907835        2.3030340502        2.4955399093
 H          3.0417574083        2.2699256638        0.0602390352
 H         -1.0237603885        3.8651116823       -1.7551343299
 H         -3.3062526003        3.7580076369       -1.1139242679
 H         -5.1462553701        2.3757379908       -0.2242395786
 H         -4.8014443452       -0.0103042780        0.2396235181
 C         -2.4980673738       -1.4835333903       -0.1758647225
 H         -2.6380210337       -2.0407573277       -1.1150477331
 C         -3.4146715830       -2.0705955396        0.8796226208
 C         -4.7219553431       -2.6947242535        0.4945855195
 C         -3.5826929626       -3.5582608522        0.9428404659
 H         -3.6392256030       -4.0312835797        1.9116362111
 H         -3.0607543419       -4.1449503472        0.2007713132
 H         -4.9820410577       -2.7086885277       -0.5532042753
 H         -5.5649490234       -2.5775758007        1.1589354640
 H         -3.3590644034       -1.5327185268        1.8194250135
 O         -0.6894596092       -3.2058485980       -1.5620941511
