  62
        -98.94292671
 C         -1.9947908901       -0.5012679696        0.0247078209
 C         -2.6212583898        0.7624754805        0.1871294414
 C         -3.9929536398        0.8857529910       -0.3207836784
 C         -4.5672461001       -0.1739968987       -0.9180353487
 C         -5.9763619402       -0.2120062883       -1.4325520785
 C         -6.9463647302       -0.7166170884       -0.3550071486
 C         -6.7866083399       -0.0179860688        0.9953113816
 H         -7.5408522599       -0.4324831689        1.6676868916
 H         -5.8096862699       -0.2702377992        1.4140568914
 C         -6.9340796395        1.5090878912        0.9412641621
 H         -7.4343001596        1.8009422716        0.0171634022
 H         -7.5701331894        1.8292771211        1.7692179223
 C         -5.6178994794        2.2786877609        1.0683842122
 H         -5.0684819493        1.9239818705        1.9442411920
 H         -5.8547062091        3.3327199209        1.2369607425
 C         -4.6836012495        2.2089288311       -0.1463105380
 H         -5.2343025196        2.4782745314       -1.0500228678
 H         -3.8880657193        2.9450250808        0.0031881122
 H         -7.9667324702       -0.5813046681       -0.7181546384
 H         -6.7758995704       -1.7857039085       -0.2091547289
 H         -6.2651457500        0.7852619619       -1.7587512382
 H         -6.0123622704       -0.8892283980       -2.2874616787
 O         -3.9324707704       -1.3601756388       -1.0768205591
 C         -2.6408772504       -1.5631818592       -0.6095542493
 O         -2.2126587806       -2.7122642293       -0.8300389397
 H          1.3443515604        1.2524138296        0.4433416710
 C          1.3837537101        0.5684735499       -0.3911709492
 C          0.4597490999       -0.4613607099       -0.4938091194
 C          0.5292623896       -1.3166125996       -1.5895374496
 C          1.4973552695       -1.1339530895       -2.5593434697
 C          2.4268387897       -0.1143262698       -2.4461303595
 C          2.3702897600        0.7414513199       -1.3534963692
 N          3.3045409403        1.7842843797       -1.2042998890
 S          4.2056228305        1.8576100791        0.2048712709
 O          3.3447401906        2.1201071389        1.3286116211
 O          5.2353939806        2.8361350289       -0.0625693190
 C          4.9351134901        0.2353870889        0.3471839403
 C          6.2045445500        0.0301239688       -0.1573857099
 C          6.7483274798       -1.2432318014       -0.1091141803
 C          6.0118716196       -2.2875148614        0.4294847594
 C          4.7374462897       -2.0659122512        0.9282684797
 C          4.1904405800       -0.7931194711        0.8897948101
 H          3.2038079701       -0.5879512710        1.2712320103
 H          4.1625631696       -2.8771225012        1.3451434995
 H          6.4326411994       -3.2800835715        0.4623386591
 H          7.7405220497       -1.4177040915       -0.4930437705
 H          6.7420434402        0.8718671688       -0.5632582597
 H          3.9139110402        1.9016025298       -2.0018851691
 H          3.1857458497        0.0233829303       -3.2015471595
 H          1.5342613593       -1.7984426693       -3.4091734699
 H         -0.1910911206       -2.1149535394       -1.6784580898
 C         -0.5871401900       -0.6354098600        0.5807259207
 H         -0.4789752698        0.2030271797        1.2829962309
 C         -0.3584612702       -1.9263243603        1.3429441403
 C          0.6555562399       -1.9499063708        2.4454678302
 C         -0.8064263701       -2.0202436206        2.7690563403
 H         -1.2169257802       -2.9552372206        3.1192003301
 H         -1.2743364298       -1.1486317107        3.2040076706
 H          1.1743157001       -1.0294650310        2.6717282904
 H          1.2528162497       -2.8385567510        2.5790540498
 H         -0.4632424405       -2.8128894801        0.7316554201
 O         -2.0573935995        1.7440840002        0.7430447616
