  62
        -98.93736846
 C         -2.2835157468       -0.4977210054       -0.2726931010
 C         -3.5310681843       -0.9639728583       -0.7613134237
 C         -4.7104945882       -0.6413287316        0.0518861564
 C         -4.5446561622        0.0138388451        1.2149147150
 C         -5.6597495188        0.4555488069        2.1168859748
 C         -6.1266351368        1.8755790826        1.7672151484
 C         -6.3993260158        2.0875919547        0.2779532675
 H         -6.7506555201        3.1143476743        0.1547808363
 H         -5.4591659118        2.0031146265       -0.2722666842
 C         -7.4277042462        1.1196692986       -0.3239428647
 H         -8.1183117147        1.6882927660       -0.9501873345
 H         -8.0148342359        0.6610393883        0.4724235597
 C         -6.8275115613        0.0230339125       -1.2058248872
 H         -6.1638951707        0.4726073899       -1.9491226132
 H         -7.6434993568       -0.4619723435       -1.7480523599
 C         -6.0517398209       -1.0757325927       -0.4683885560
 H         -6.6654385219       -1.4812601103        0.3383962670
 H         -5.8492156983       -1.8779583889       -1.1840476576
 H         -7.0309482857        2.0920766091        2.3387631841
 H         -5.3516552538        2.5807396798        2.0766071460
 H         -6.4894070556       -0.2431309334        2.0284420460
 H         -5.2944358149        0.4451277142        3.1450671670
 O         -3.3281397566        0.3892699823        1.6831922624
 C         -2.1666212241        0.1546603217        0.9556947109
 O         -1.1341884022        0.5641625451        1.5171911132
 O         -3.6508988922       -1.6244155024       -1.8278443406
 C         -1.0525279145       -0.7883274033       -1.1113391550
 C          0.0665070395       -1.3217702307       -0.2540386443
 C         -0.1109221398       -2.5415257069        0.3949366862
 C          0.8877415513       -3.0725908558        1.1870084708
 C          2.0934892999       -2.4091476249        1.3333799912
 C          2.2776486120       -1.1884610748        0.6962459735
 C          1.2670396107       -0.6513976441       -0.0891594379
 H          1.4314842676        0.3067439516       -0.5530580772
 N          3.4781400816       -0.4762810570        0.8443287091
 S          4.0545656214        0.4093305447       -0.4698920259
 O          3.4482054793        1.7167089473       -0.4673187408
 O          3.9073228815       -0.3588861828       -1.6863839163
 C          5.7788178815        0.5473965053       -0.0336961887
 C          6.6833925296       -0.3603464613       -0.5516984878
 C          8.0159940765       -0.2638993670       -0.1828984485
 C          8.4188775961        0.7311163188        0.6950865193
 C          7.4995899050        1.6352523981        1.2064473596
 C          6.1658317770        1.5451306209        0.8410827178
 H          5.4171022147        2.2292834563        1.2054563550
 H          7.8167744323        2.4093174190        1.8865046309
 H          9.4563926733        0.8045497369        0.9804431140
 H          8.7334815045       -0.9631395258       -0.5810777406
 H          6.3259528806       -1.1110695566       -1.2380422361
 H          4.2079894172       -1.0150479127        1.2895613838
 H          2.8781949404       -2.8259531288        1.9464555023
 H          0.7322105671       -4.0167219913        1.6873517735
 H         -1.0506384427       -3.0638402019        0.2736980483
 H         -1.3697214036       -1.5983393671       -1.7906884581
 C         -0.6181603901        0.3701975614       -1.9965427182
 C         -1.6168086799        1.3406108372       -2.5501370942
 C         -0.6256549316        1.7907298456       -1.5211652853
 H          0.1869873506        2.4341838073       -1.8272155671
 H         -0.9705522303        1.9800761516       -0.5164931394
 H         -1.4953578303        1.6789335301       -3.5680947964
 H         -2.6471666817        1.2223936556       -2.2474363652
 H          0.1969441622        0.0882317352       -2.6579546731
