  62
        -98.93347311
 C          2.5531613556        0.2492323646        0.6221805812
 C          2.1134705373       -0.3735296858       -0.5707605307
 C          1.6217465404       -1.7600463147       -0.4550786269
 C          1.6082118068       -2.3510703223        0.7514643640
 C          1.0733512337       -3.7102121116        1.1198995835
 C         -0.3553201265       -3.9887957195        0.6222760430
 C         -0.4153969577       -5.0841300453       -0.4425536552
 H          0.2741640848       -5.8825128343       -0.1602417662
 H         -1.4219150642       -5.5079673287       -0.4520662049
 C         -0.0967449090       -4.6140994695       -1.8601755991
 H         -0.9171804749       -3.9907570876       -2.2222054851
 H         -0.0492596180       -5.4991401749       -2.4992798014
 C          1.2054598324       -3.8247304487       -2.0181562658
 H          1.9941943800       -4.2512037296       -1.4004886647
 H          1.5262579670       -3.9249532985       -3.0575384775
 C          1.0611568881       -2.3242798023       -1.7319686569
 H          1.5572488561       -1.7533260996       -2.5239527409
 H          0.0077812113       -2.0257130736       -1.7732434874
 H         -0.7959069114       -3.0643435016        0.2447919148
 H         -0.9565759897       -4.3050839376        1.4765790381
 H          1.7555015735       -4.4808354464        0.7557233564
 H          1.1043775383       -3.7471760555        2.2110188258
 O          2.1057003624       -1.7383729287        1.8660737027
 C          2.5311142998       -0.4236294786        1.8432281246
 O          2.8640363545        0.0280141722        2.9592473723
 H          0.2749296804        1.3896502855        1.0375282500
 C          0.4528207750        2.1147253746        0.2552674182
 C          1.7592017725        2.4574481266       -0.0744922720
 C          1.9658041106        3.3978489442       -1.0734166663
 C          0.8866622765        3.9483936437       -1.7446831018
 C         -0.4073067711        3.5597091426       -1.4533486950
 C         -0.6245892991        2.6278873884       -0.4433047726
 N         -1.9266721215        2.2085825362       -0.1092761710
 S         -2.1532309742        0.6114642274        0.3933352012
 O         -1.7730270157        0.5012690286        1.7807639877
 O         -1.5248664862       -0.3145676435       -0.5208928951
 C         -3.9282692166        0.5014034912        0.2568242265
 C         -4.4951250648       -0.1698477028       -0.8094920638
 C         -5.8767452034       -0.2178107488       -0.9139572134
 C         -6.6631166781        0.4061236187        0.0425227185
 C         -6.0796033454        1.0759725923        1.1080533154
 C         -4.6993386653        1.1255863487        1.2193682962
 H         -4.2001249196        1.6249425242        2.0332866835
 H         -6.6939299947        1.5579992902        1.8512264293
 H         -7.7376727885        0.3683485053       -0.0413852130
 H         -6.3325466125       -0.7406397084       -1.7392325309
 H         -3.8430654930       -0.6432009692       -1.5260136553
 H         -2.6055509130        2.4622530024       -0.8148640534
 H         -1.2424512550        3.9644372462       -2.0047186615
 H          1.0594718855        4.6721833846       -2.5268141771
 H          2.9693083703        3.6756975897       -1.3510640943
 C          2.8615414361        1.7382297884        0.6674804724
 H          2.7808398293        2.0076740711        1.7347771413
 C          4.2627105625        2.1304814712        0.2275955859
 C          5.3932916319        1.1490893937        0.3034221865
 C          4.8844489386        1.6044823859       -1.0294926832
 H          5.5040404827        2.2717897974       -1.6106985139
 H          4.2992139023        0.9193010413       -1.6212383467
 H          5.1589371073        0.1448832874        0.6265752785
 H          6.3569606101        1.5026046439        0.6385214163
 H          4.5005629771        3.1544499652        0.4993542685
 O          2.1106369524        0.1983615514       -1.6922019355
