  62
        -98.93164687
 C         -2.2696224253        0.6558605533        0.2988536055
 C         -3.5993860785        1.1526177793        0.3058046610
 C         -4.6604962681        0.1768454968        0.5690949829
 C         -4.3365790461       -1.1092133740        0.7943628121
 C         -5.2964738523       -2.2213524164        1.1209439743
 C         -5.9662027926       -2.8559597179       -0.1055019260
 C         -7.0294009476       -1.9923687187       -0.7851910893
 H         -7.5688737985       -2.6371818558       -1.4817140840
 H         -7.7461872720       -1.6471255591       -0.0395323290
 C         -6.4677333944       -0.7911354912       -1.5583747323
 H         -5.3987318848       -0.9364817017       -1.7302389201
 H         -6.9450392753       -0.7338202008       -2.5392031466
 C         -6.6780655028        0.5587841840       -0.8727937631
 H         -6.2095994418        1.3320182094       -1.4868306304
 H         -7.7465385595        0.7774161623       -0.8130982695
 C         -6.0827982302        0.6499051639        0.5381636915
 H         -6.6877226227        0.0751821507        1.2393664859
 H         -6.0896652418        1.6982133796        0.8464957568
 H         -5.1915727534       -3.1187376283       -0.8294997690
 H         -6.4393010739       -3.7829881415        0.2264619854
 H         -6.0622341828       -1.8526726443        1.8042763625
 H         -4.7145902312       -2.9908837508        1.6327645625
 O         -3.0524762096       -1.5497818402        0.7750237296
 C         -1.9846334584       -0.6895989361        0.5316186487
 O         -0.8796102568       -1.2603883732        0.5519065958
 O         -3.8829915234        2.3650090636        0.1081399364
 C         -1.1679776333        1.6872387790        0.0830098204
 C         -0.1059282569        1.2154095420       -0.8738138868
 C         -0.3114827331        1.4635700780       -2.2312362014
 C          0.6060429650        1.0608724009       -3.1822393749
 C          1.7710467715        0.4188915425       -2.8024190190
 C          1.9834653182        0.1540018748       -1.4559069015
 C          1.0472279142        0.5404620121       -0.5061085000
 H          1.2394449340        0.2717528869        0.5161623177
 N          3.1423475980       -0.5138767539       -1.0271111899
 S          3.8261075686       -0.0290066814        0.4377734870
 O          3.2349665513       -0.7784128772        1.5169886670
 O          3.7672568075        1.4116309626        0.5477853275
 C          5.5147110603       -0.5563890895        0.2066712597
 C          6.4672258286        0.3653259128       -0.1845858910
 C          7.7721537738       -0.0600577064       -0.3784277668
 C          8.0999865588       -1.3930214961       -0.1820942199
 C          7.1329399482       -2.3069215036        0.2101775228
 C          5.8268809881       -1.8879322386        0.4076849111
 H          5.0438987953       -2.5584450807        0.7223802875
 H          7.3918238684       -3.3419920085        0.3647617205
 H          9.1161892963       -1.7216301759       -0.3322319228
 H          8.5268249021        0.6486091911       -0.6791918002
 H          6.1671238102        1.3924669075       -0.3158540138
 H          3.8361762571       -0.6131908375       -1.7551614124
 H          2.4995175400        0.1150403669       -3.5389216296
 H          0.4208457171        1.2622588976       -4.2265941646
 H         -1.2130343902        1.9772655034       -2.5363220160
 H         -1.6873198867        2.5192874823       -0.4203841954
 C         -0.7494701158        2.2570028711        1.4357324562
 C         -0.0250957413        1.5038429213        2.5094940921
 C          0.6381336181        2.6635187564        1.8262748835
 H          0.7549181414        3.5797327194        2.3868479984
 H          1.4579466481        2.4589891245        1.1547983665
 H         -0.3624002498        1.6323459656        3.5289030560
 H          0.3196598496        0.5020173143        2.3040297504
 H         -1.5431639526        2.9038056831        1.8034353832
