  62
        -98.94791585
 C         -0.9690802391       -1.0153490662        0.7147099813
 C         -1.5657104806       -0.8890526029       -0.5628666360
 C         -2.2627609941        0.3775987896       -0.8162944855
 C         -2.2523588689        1.3461258057        0.1165181330
 C         -2.8790092681        2.7085381141       -0.0135304772
 C         -4.3784653463        2.7435254440        0.3127050508
 C         -5.2890320689        2.1037609495       -0.7358716422
 H         -6.3128845076        2.3920956083       -0.4896740042
 H         -5.0601023237        2.5210953454       -1.7170198571
 C         -5.2083249623        0.5720062904       -0.7947509454
 H         -6.2171675574        0.1553687961       -0.8351637968
 H         -4.7417210953        0.1961941363        0.1185367018
 C         -4.4437236036        0.0237083790       -1.9997652360
 H         -4.9737583971        0.2810043966       -2.9195355257
 H         -4.4143199626       -1.0660255217       -1.9215248912
 C         -2.9989684115        0.5281346698       -2.1122933931
 H         -2.4756769052       -0.0751098160       -2.8587570729
 H         -2.9846306935        1.5679902673       -2.4399698849
 H         -4.5363938229        2.2566243909        1.2776285532
 H         -4.6636003522        3.7928248044        0.4179602476
 H         -2.3592113425        3.3601392911        0.6925742501
 H         -2.7127805050        3.0902841685       -1.0218772087
 O         -1.6280041960        1.2025334462        1.3163682917
 C         -0.9752966150        0.0236421947        1.6436103506
 O         -0.4421127637        0.0281956079        2.7716868145
 H          1.4491672216       -0.3537860545        0.2891478422
 C          1.7038379604       -1.2879089653       -0.1901537737
 C          0.9573991606       -2.4227728806        0.1005335491
 C          1.3069249113       -3.6203252442       -0.5087391485
 C          2.3573560799       -3.6629763661       -1.4099274461
 C          3.0665575763       -2.5202409246       -1.7314736855
 C          2.7325744618       -1.3191960628       -1.1153702882
 N          3.4302559562       -0.1343276533       -1.3945001466
 S          2.6066460290        1.3229018248       -1.4099432628
 O          1.2610932039        1.1848157293       -1.9169095933
 O          3.4741275336        2.2100411720       -2.1587616682
 C          2.5833263477        1.8477933103        0.2899266925
 C          1.4345189694        2.4223369556        0.7950031664
 C          1.4184523857        2.8473407561        2.1133076048
 C          2.5508411841        2.6960101366        2.8977506001
 C          3.7008485622        2.1258714810        2.3730125605
 C          3.7223330164        1.6975088996        1.0555941568
 H          4.5948083793        1.2446942197        0.6149889498
 H          4.5781020650        2.0095648843        2.9889128171
 H          2.5320216546        3.0204766399        3.9261558957
 H          0.5186556761        3.2765966692        2.5239291634
 H          0.5699029155        2.5042094938        0.1537505079
 H          4.1046798440       -0.1967931599       -2.1433181679
 H          3.8674909839       -2.5521377933       -2.4542649296
 H          2.6162270730       -4.5980883465       -1.8831143461
 H          0.7505767676       -4.5167851246       -0.2892295749
 C         -0.1929160578       -2.2719580743        1.0672935945
 H          0.2238655310       -2.1014201994        2.0709966421
 C         -1.1093884676       -3.4760130473        1.1145181017
 C         -0.7957644548       -4.6283409159        2.0196412231
 C         -1.9334103697       -3.7087949343        2.3440313535
 H         -2.9432050502       -4.0724335326        2.2268410333
 H         -1.8127120399       -3.0109094423        3.1599833565
 H          0.0961066511       -4.5611535619        2.6239917471
 H         -1.0274420415       -5.6272985991        1.6821411686
 H         -1.5701058785       -3.6849938710        0.1559580281
 O         -1.5221734730       -1.7856540740       -1.4454496257
