  62
        -98.93513146
 C         -1.9543310246       -0.7681308587        0.7755569850
 C         -3.3671270984       -0.8852408415        0.9113319795
 C         -4.1502206517        0.3462462248        0.7557428715
 C         -3.5190517854        1.5280251991        0.6582669808
 C         -4.1670187374        2.8770552023        0.5091246264
 C         -4.5568060731        3.2268887769       -0.9336406575
 C         -5.7594786161        2.4616834517       -1.4878488432
 H         -6.5935628045        2.5439594658       -0.7903022811
 H         -6.0579825530        2.9608278341       -2.4119652469
 C         -5.4848169506        0.9824477742       -1.7933715283
 H         -4.4064545682        0.8144972907       -1.8416835742
 H         -5.8913565682        0.7323035818       -2.7759222538
 C         -6.0929450901        0.0036080224       -0.7886091543
 H         -7.1825310488        0.0686442830       -0.8272371446
 H         -5.8062605605       -1.0096993840       -1.0816765126
 C         -5.6410178520        0.2260928232        0.6604912397
 H         -6.1199882107        1.1146420719        1.0714080403
 H         -5.9429156731       -0.6405003649        1.2536159566
 H         -3.6916253806        3.0633333839       -1.5805394269
 H         -4.7908225442        4.2937543958       -0.9574212156
 H         -5.0494300827        2.9315126407        1.1477296776
 H         -3.4393450393        3.6127132380        0.8585665280
 O         -2.1684004251        1.6221593944        0.7358855733
 C         -1.3553027069        0.4952663468        0.8214721638
 O         -0.1522649232        0.7899770465        0.9549856618
 H          0.1232826787       -0.6593473991       -1.1671685407
 C          0.8202873358       -1.1714889770       -0.5182630785
 C          0.3488184711       -1.8819519006        0.5764183056
 C          1.2730768883       -2.5002495884        1.4103110100
 C          2.6300900817       -2.4227211319        1.1479952125
 C          3.0954748471       -1.6999197144        0.0653969386
 C          2.1817289112       -1.0478543845       -0.7532667497
 N          2.6378788847       -0.2538673507       -1.8171459044
 S          4.0590821516        0.6061523611       -1.6476031110
 O          3.8970671536        1.7645854775       -2.5008794168
 O          5.1714768039       -0.2526642514       -1.9801141229
 C          4.2175763031        1.1204046989        0.0575112613
 C          5.4859761680        1.1159365611        0.6060653902
 C          5.6587340175        1.5420898524        1.9124617164
 C          4.5620695196        1.9618688628        2.6496207536
 C          3.2967340257        1.9590483067        2.0850558548
 C          3.1161487832        1.5407634023        0.7753320757
 H          2.1256120256        1.5180447406        0.3497001637
 H          2.4344583726        2.2703023284        2.6528238999
 H          4.6921718971        2.2888888179        3.6692327650
 H          6.6436193195        1.5416918499        2.3510876862
 H          6.3076986686        0.7687429243        0.0006140055
 H          1.9202957954        0.3168896201       -2.2384066570
 H          4.1486160353       -1.6245145217       -0.1539426561
 H          3.3329560723       -2.9208028991        1.7978669252
 H          0.9216281876       -3.0469885467        2.2734835041
 C         -1.1239057433       -2.0512590119        0.8187718963
 H         -1.2592939683       -2.4760158334        1.8284179307
 C         -1.6827050944       -3.1080716766       -0.1430242175
 C         -1.1834405943       -3.3504158071       -1.5328346178
 C         -0.9174776754       -4.3579285359       -0.4555055357
 H         -1.4524989715       -5.2953332609       -0.4759129205
 H          0.0958183841       -4.4351112249       -0.0905629879
 H         -0.3432478201       -2.7820316445       -1.8996787202
 H         -1.9146836328       -3.5862970573       -2.2924824360
 H         -2.7475628783       -3.2351313885        0.0031249008
 O         -3.9627161568       -1.9654452050        1.1668513222
