  62
        -98.94359308
 C          2.0150730044        1.3570410965       -0.1732233669
 C          1.8976372282        0.0242873001       -0.6361663793
 C          3.1576397151       -0.7251645712       -0.7472304046
 C          4.3158582068       -0.1227194723       -0.4218030109
 C          5.6597634636       -0.7905943422       -0.4277267867
 C          5.9773295751       -1.4096676097        0.9408911051
 C          4.8481951739       -2.2698682685        1.5089164835
 H          5.1966230852       -2.6751860117        2.4614678941
 H          3.9884040036       -1.6322626852        1.7277299047
 C          4.4042345495       -3.4210261389        0.5954933413
 H          5.1749896368       -3.6199733206       -0.1500783605
 H          4.2963985559       -4.3248103584        1.1989913600
 C          3.0652824446       -3.1924516903       -0.1082286831
 H          2.3095627273       -2.9031378925        0.6267909251
 H          2.7469712662       -4.1414031489       -0.5480785707
 C          3.0743598664       -2.1459912258       -1.2294374076
 H          3.8825105931       -2.3645536003       -1.9302141004
 H          2.1240323183       -2.2251728842       -1.7649647854
 H          6.8826858518       -2.0119265563        0.8457751392
 H          6.1802421698       -0.6016607116        1.6478010074
 H          5.6753687104       -1.5591389125       -1.1980275871
 H          6.4167465650       -0.0398874596       -0.6608578568
 O          4.3888476958        1.1646189650        0.0042105196
 C          3.2439428300        1.9322873727        0.1471835700
 O          3.4475672618        3.0911363207        0.5637596759
 H         -1.9678065338        2.0193966047       -0.2416182726
 C         -1.5845748986        1.5381442995        0.6449980996
 C         -0.2218014197        1.5436836478        0.9021687858
 C          0.2339394237        0.9235112007        2.0623540644
 C         -0.6440614049        0.2948607244        2.9244607501
 C         -2.0024447090        0.2828255060        2.6591399828
 C         -2.4706489468        0.9112217194        1.5139590280
 N         -3.8570195759        0.9141453260        1.2510315622
 S         -4.6008193104       -0.5472856806        0.9096169559
 O         -6.0024510905       -0.2397006003        0.7386099031
 O         -4.2730789654       -1.4927399049        1.9450433087
 C         -3.9070368725       -1.0599223907       -0.6517302828
 C         -4.6821978244       -0.9818325068       -1.7923901193
 C         -4.1163933419       -1.3198780677       -3.0109204883
 C         -2.7863747856       -1.7091776495       -3.0700247654
 C         -2.0199596196       -1.7768749997       -1.9168027685
 C         -2.5846525292       -1.4544989362       -0.6932020543
 H         -2.0046952552       -1.4975732449        0.2143333120
 H         -0.9768788726       -2.0457632535       -1.9534516130
 H         -2.3416735170       -1.9594745813       -4.0205991866
 H         -4.7093731092       -1.2710261428       -3.9102066960
 H         -5.7080992004       -0.6635209474       -1.6999154877
 H         -4.1291879520        1.5899741180        0.5503468316
 H         -2.6995771442       -0.2174187388        3.3109536170
 H         -0.2691891376       -0.1883299900        3.8144819210
 H          1.2942888018        0.9339509265        2.2771473364
 C          0.7708326591        2.2115262975       -0.0186589001
 H          1.1004907492        3.1469605273        0.4574043367
 C          0.1989941235        2.5347856136       -1.3846723214
 C         -0.5084146131        3.8336563139       -1.6267700882
 C          0.8548339133        3.6032534363       -2.2046978219
 H          0.9474977677        3.4538024357       -3.2698469513
 H          1.6943863451        4.1199855152       -1.7623067422
 H         -0.5955195512        4.5202806562       -0.7980459142
 H         -1.3518278196        3.8451304116       -2.3011275569
 H         -0.1555785498        1.6518205296       -1.9045739336
 O          0.8023994132       -0.5129122614       -0.9387682577
