  62
        -98.93356292
 C          2.0110174465        0.6060358916        0.9919679675
 C          2.8663767983        1.0747110754       -0.0344614943
 C          4.2616326371        0.5943308145        0.0117875827
 C          4.6470521791       -0.2479585315        0.9840672356
 C          6.0154145627       -0.8286896391        1.2398972240
 C          6.8115956527       -1.3322119427        0.0280987603
 C          5.9630150174       -1.9234994614       -1.1070258967
 H          4.9367496808       -2.0755117433       -0.7678374312
 H          6.3643450827       -2.9023546266       -1.3764158427
 C          5.9611213433       -1.0543788376       -2.3669940907
 H          5.6718441159       -1.6736299856       -3.2196070587
 H          6.9784713475       -0.7015939070       -2.5501947884
 C          5.0135741592        0.1439466527       -2.3357474285
 H          3.9779546811       -0.2035700578       -2.3799998399
 H          5.1911877516        0.7362819448       -3.2365402255
 C          5.1461622583        1.0609517687       -1.1087551176
 H          4.7805942005        2.0522038812       -1.3900247122
 H          6.1827003849        1.1496613496       -0.7930714871
 H          7.5025835171       -2.0911988000        0.3991020525
 H          7.4212852402       -0.5222448587       -0.3700383404
 H          5.8463488647       -1.6547129564        1.9350465516
 H          6.6091007822       -0.0786123309        1.7707363601
 O          3.7858455160       -0.6831128089        1.9481087335
 C          2.4648854833       -0.2780857567        1.9730286138
 O          1.7989761152       -0.7608829200        2.9123258601
 O          2.5101606623        1.8605854852       -0.9478294235
 C          0.5469958793        0.9992061524        1.1027251996
 C         -0.3105736387        0.0716660992        0.2816699578
 C         -0.0550681231       -0.1376669127       -1.0701362335
 C         -0.8532313349       -0.9890242871       -1.8120110034
 C         -1.9248011977       -1.6406546007       -1.2262103652
 C         -2.1919981947       -1.4329701094        0.1199042578
 C         -1.3860449448       -0.5817886571        0.8647986815
 H         -1.5892215528       -0.4371759238        1.9174332283
 N         -3.3089724151       -2.0648445636        0.7049333216
 S         -4.7896870234       -1.6762260525        0.0139303800
 O         -5.7778451617       -1.9610949544        1.0290919915
 O         -4.9328318321       -2.3847395324       -1.2319082897
 C         -4.6693558546        0.0781352650       -0.2811092443
 C         -4.2944618154        0.5380922603       -1.5273321462
 C         -4.0916804071        1.8973587568       -1.7051801124
 C         -4.2665201014        2.7680419242       -0.6412108105
 C         -4.6546049770        2.2913996245        0.6017449093
 C         -4.8512284859        0.9328368846        0.7882278378
 H         -5.1527792578        0.5230306545        1.7391990062
 H         -4.7945484189        2.9726312301        1.4257512824
 H         -4.0957449619        3.8235589808       -0.7795075190
 H         -3.7907066309        2.2715311167       -2.6704072937
 H         -4.1719721255       -0.1700351222       -2.3299914870
 H         -3.3550581941       -1.9452394177        1.7070480728
 H         -2.5628558716       -2.3014201507       -1.7907086509
 H         -0.6409333810       -1.1458853520       -2.8587708671
 H          0.7713473039        0.3814880003       -1.5309722478
 H          0.2905677896        0.8358587566        2.1612869859
 C          0.2918868458        2.4697817405        0.7949988625
 C         -0.5556762587        2.9445880074       -0.3438319709
 C         -1.0648910054        3.0530860510        1.0595234321
 H         -1.1291627620        4.0275520507        1.5188537352
 H         -1.8465066015        2.3696675855        1.3570079521
 H         -0.2414748485        3.8412914900       -0.8552269156
 H         -1.0068061902        2.2087680390       -0.9906109486
 H          1.1447151242        3.0901456135        1.0483347286
