  62
        -98.93737768
 C         -2.5916739272       -0.3733268586       -0.0881494039
 C         -2.1400738497       -1.3907825862       -0.9590843014
 C         -1.4766652411       -2.5483591072       -0.3382434283
 C         -1.3201494144       -2.5771213644        0.9965404332
 C         -0.7242673459       -3.6597580405        1.8636805470
 C          0.5136900797       -4.4024179807        1.3510158479
 C          1.5286132028       -3.5276212728        0.6012231943
 H          1.2855641077       -2.4707931048        0.7343232230
 H          2.5199356541       -3.6896705785        1.0300131585
 C          1.6008986525       -3.8485914355       -0.8934486354
 H          1.5882222366       -4.9328015028       -1.0268540648
 H          2.5517555054       -3.4810642561       -1.2873266068
 C          0.4897728631       -3.2263962663       -1.7354031404
 H          0.5868988962       -2.1367817879       -1.7139972508
 H          0.6264195946       -3.5454840668       -2.7717333040
 C         -0.9417344910       -3.5771690458       -1.2935795985
 H         -1.5896275320       -3.5337426781       -2.1734380163
 H         -0.9914576583       -4.5801126735       -0.8770933411
 H          0.2062715318       -5.2270658087        0.7092175982
 H          0.9923171780       -4.8465198455        2.2259921642
 H         -0.4825013209       -3.1609023129        2.8058830133
 H         -1.5131329667       -4.3878086947        2.0790083466
 O         -1.7689086252       -1.5708612619        1.8000415688
 C         -2.3617313372       -0.4323439772        1.2856823838
 O         -2.6509710150        0.4268424644        2.1417167120
 H         -0.6360608997        0.8132022985       -1.3783259612
 C         -0.8500827691        1.7297975267       -0.8420812206
 C         -2.1544800552        1.9888550372       -0.4387266771
 C         -2.4085140301        3.1721614677        0.2402812120
 C         -1.3731758870        4.0404360307        0.5482550084
 C         -0.0668157754        3.7422324470        0.2038358650
 C          0.1877731470        2.5782421569       -0.5058299545
 N          1.5368861760        2.2029406542       -0.7894717244
 S          2.0609274760        1.1938889427        0.4756497155
 O          1.3239819955       -0.0514246552        0.4657184128
 O          2.0110090671        1.9636765293        1.6926471598
 C          3.7582051636        0.9009776091        0.0132012673
 C          4.1331589023       -0.3364684241       -0.4719971837
 C          5.4512915398       -0.5352334598       -0.8529211919
 C          6.3638454894        0.5031521986       -0.7471294412
 C          5.9709086530        1.7411110398       -0.2596233896
 C          4.6556131950        1.9456358181        0.1247592063
 H          4.3043754447        2.8857591277        0.5158996665
 H          6.6840831767        2.5453732275       -0.1780678256
 H          7.3883881814        0.3458335155       -1.0450814406
 H          5.7593188454       -1.4970849182       -1.2302023631
 H          3.3889388844       -1.1149638587       -0.5314036090
 H          1.5760162087        1.6451617418       -1.6353473903
 H          0.7529372092        4.3799160165        0.4905591046
 H         -1.5855657789        4.9483967120        1.0921161625
 H         -3.4131257791        3.4017888009        0.5563617761
 C         -3.1711808744        0.9007789761       -0.6846427888
 H         -3.2359336700        0.7172380192       -1.7671254422
 C         -4.5510255309        1.2076155259       -0.1503658281
 C         -5.4823047514        2.0733726273       -0.9442884080
 C         -5.7445570809        0.6030984617       -0.8251024596
 H         -6.5686208161        0.2721049865       -0.2113972518
 H         -5.5644610854       -0.0214071267       -1.6878526771
 H         -6.1307857647        2.7539013278       -0.4139469747
 H         -5.1272754475        2.4493888740       -1.8917745865
 H         -4.5725295498        1.2847220802        0.9304409367
 O         -2.2843150673       -1.3342092243       -2.2120662149
