  62
        -98.93908263
 C          1.1569090861        1.2958359290        0.1301650082
 C          2.0320197584        0.7814051297        1.1171986681
 C          2.7206050082       -0.4832317550        0.8061750285
 C          2.4719461042       -1.0981863730       -0.3644150514
 C          2.9807813411       -2.4098753432       -0.9252898485
 C          4.2277573148       -3.0747374472       -0.3470805471
 C          5.5250005832       -2.2918462548       -0.5431298019
 H          6.3254946715       -2.8285611171       -0.0292197264
 H          5.7659881684       -2.2754667502       -1.6089198265
 C          5.5037157908       -0.8463772966       -0.0518233371
 H          4.7982774043       -0.2655339474       -0.6496280186
 H          6.4960498343       -0.4205247661       -0.2231549294
 C          5.1691378808       -0.6623867411        1.4277730836
 H          5.8322605644       -1.2814106273        2.0350216874
 H          5.3642759193        0.3832774805        1.6809846839
 C          3.7123525060       -0.9675778448        1.8232860629
 H          3.5672220507       -2.0269071982        2.0244455226
 H          3.4917363704       -0.4281406132        2.7492929987
 H          4.3377469889       -4.0307643192       -0.8663859612
 H          4.0802274271       -3.3039865164        0.7043414664
 H          2.1464622298       -3.1158527817       -0.8400809521
 H          3.1344860911       -2.2348597867       -1.9947998370
 O          1.5863847030       -0.5872095998       -1.2669893700
 C          0.8982826697        0.6003236450       -1.0497609859
 O          0.1137881554        0.8994604177       -1.9667322519
 H         -1.2176842785        0.8286235896        1.5432806545
 C         -1.7396420150        1.4492621419        0.8286627249
 C         -1.0443355861        2.4348393427        0.1370935177
 C         -1.7355993562        3.2216189422       -0.7743006789
 C         -3.0878527187        3.0194228792       -0.9875505323
 C         -3.7739033857        2.0333627882       -0.3038907502
 C         -3.0917282615        1.2403490389        0.6125916677
 N         -3.7715219153        0.2486719988        1.3434402232
 S         -3.1274947650       -1.2840023781        1.4969327984
 O         -4.2208197090       -2.0765987998        2.0176882684
 O         -1.9311122872       -1.2485739535        2.2993349444
 C         -2.7518325218       -1.8079335440       -0.1635530615
 C         -1.4427760399       -1.8232226588       -0.5948096203
 C         -1.1707818629       -2.1943401126       -1.9017225992
 C         -2.2107975163       -2.5382998478       -2.7502903849
 C         -3.5227451484       -2.5243966873       -2.3006234800
 C         -3.7993386501       -2.1535348341       -0.9954983264
 H         -4.8033952462       -2.1436303212       -0.6032220132
 H         -4.3274877864       -2.7977654464       -2.9639438926
 H         -1.9940862968       -2.8199925967       -3.7686171710
 H         -0.1508324575       -2.1893973012       -2.2513860130
 H         -0.6615522235       -1.5437528443        0.0957091728
 H         -4.7590876425        0.1928927287        1.1383263039
 H         -4.8283448124        1.8762700678       -0.4728111565
 H         -3.6129597355        3.6339880158       -1.7027596163
 H         -1.2121675754        3.9798808508       -1.3326186482
 C          0.4263067864        2.5904511818        0.4331148007
 H          0.5345591554        2.7140439705        1.5243936716
 C          1.0474024556        3.8246327129       -0.2039682215
 C          2.5143605397        3.8791212386       -0.5066889959
 C          1.5195143530        3.8455142284       -1.6258376619
 H          1.3688911307        4.7472853486       -2.2012346499
 H          1.4169877396        2.9383799365       -2.1999108482
 H          3.0982554161        2.9909881582       -0.3124591832
 H          3.0445698307        4.7995318809       -0.3129215549
 H          0.6038069484        4.7402764781        0.1753866516
 O          2.2267027560        1.3516821218        2.2248345962
