  62
        -98.94878403
 C         -1.7999461459       -1.3519526791       -0.2480486838
 C         -2.8868832120       -0.6860901498        0.3629741917
 C         -3.2801152314        0.5879951724       -0.2460638109
 C         -2.6199989585        1.0429659723       -1.3270606954
 C         -2.8899310493        2.3354488978       -2.0475445938
 C         -2.1860896764        3.5395111956       -1.4058624606
 C         -2.8125057836        4.0337387066       -0.1011943035
 H         -2.3778073402        5.0124219424        0.1119935519
 H         -3.8855452305        4.1740510693       -0.2400794883
 C         -2.5595997645        3.1142665225        1.1018918479
 H         -1.7208981711        2.4502467334        0.8749277086
 H         -2.2576650711        3.7174900811        1.9623182375
 C         -3.7694345059        2.2834111932        1.5325372447
 H         -4.5576166422        2.9482649836        1.8939413034
 H         -3.4649373031        1.6408760016        2.3632347991
 C         -4.3520402711        1.3883577807        0.4308027579
 H         -5.0497648180        0.6863004641        0.8946246000
 H         -4.8937281526        1.9922939354       -0.2965355246
 H         -1.1411254132        3.2742190718       -1.2231140654
 H         -2.2052029974        4.3580021770       -2.1295133607
 H         -2.5077227885        2.2132911737       -3.0631936864
 H         -3.9637414600        2.5186204431       -2.0970696355
 O         -1.6066527407        0.3538091809       -1.9096177195
 C         -1.1281308358       -0.8175769529       -1.3485738248
 O         -0.1306262892       -1.2937812961       -1.9244585012
 O         -3.4879262278       -1.1284260085        1.3813834996
 C         -1.2458924114       -2.6123759539        0.3957236377
 C          0.1840365273       -2.3401335176        0.7924084295
 C          1.2482913042       -3.1845417319        0.5057312978
 C          2.5479088478       -2.8035153961        0.7965247094
 C          2.8153535049       -1.5644606878        1.3502232039
 C          1.7542466041       -0.7269111751        1.6651574989
 C          0.4548709672       -1.1302767146        1.4210385445
 H         -0.3623513203       -0.4608284751        1.6617339296
 N          2.0304330762        0.5943757118        2.1304702074
 S          1.9106740936        1.6772272073        0.8331555217
 O          2.2427022563        2.9779226751        1.3767843646
 O          0.6177555223        1.5941918654        0.1884351364
 C          3.2057655267        1.1035543405       -0.2371661838
 C          4.4942168746        1.5343409719        0.0143897721
 C          5.5278016739        1.0474357690       -0.7686211312
 C          5.2555421707        0.1371377679       -1.7793421832
 C          3.9565558381       -0.2847384697       -2.0169481149
 C          2.9151354756        0.1994607054       -1.2395024395
 H          1.8952246588       -0.1179527344       -1.4000970728
 H          3.7398278647       -0.9945951629       -2.7990101877
 H          6.0600896404       -0.2471631713       -2.3863937354
 H          6.5390119805        1.3741191690       -0.5870207291
 H          4.6523452650        2.2425421853        0.8110453012
 H          1.3785074501        0.8977656313        2.8430603222
 H          3.8247257260       -1.2348590324        1.5346840435
 H          3.3641760843       -3.4677995390        0.5590632096
 H          1.0608732375       -4.1345171871        0.0323696503
 H         -1.8458879043       -2.7695666682        1.3044574101
 C         -1.4069431920       -3.8097156137       -0.5153038122
 C         -1.5265509793       -5.1875246929        0.0629318319
 C         -2.7234371646       -4.5243712888       -0.5474534380
 H         -3.0894780881       -4.8868647344       -1.4961504869
 H         -3.5004719296       -4.1604893063        0.1089306867
 H         -1.0731303622       -6.0106467605       -0.4681102732
 H         -1.4948575962       -5.2831943721        1.1376859679
 H         -0.8795173212       -3.6891114475       -1.4547769132
