  62
        -98.93821095
 C         -2.4745802896       -0.7766079395        0.0198649390
 C         -2.8110859295        0.3908522263        0.7525390648
 C         -3.9027058992        1.2109832357        0.2144460416
 C         -4.5012093136        0.8329812808       -0.9295945325
 C         -5.6585937981        1.5433317062       -1.5683743960
 C         -6.9984948419        0.9817591902       -1.0727247023
 C         -7.0945140154        0.8653142331        0.4484833043
 H         -8.0917683297        0.4870334281        0.6835028764
 H         -6.3775035574        0.1172750607        0.7945911991
 C         -6.8558533424        2.1810216629        1.2024385437
 H         -6.9707324521        3.0246916939        0.5210057874
 H         -7.6185867733        2.2839845190        1.9771898698
 C         -5.4973611787        2.2749562586        1.8996469486
 H         -5.3375864293        1.3842614460        2.5126526131
 H         -5.5198832401        3.1355728462        2.5735609293
 C         -4.2844071743        2.4485374788        0.9768740764
 H         -4.4581592714        3.2828667595        0.2942183913
 H         -3.4215686045        2.6911770910        1.6040195711
 H         -7.7998357036        1.6246212330       -1.4414904943
 H         -7.1365762592       -0.0135020281       -1.5014667838
 H         -5.5930520085        2.6063225315       -1.3444006494
 H         -5.5937152319        1.4037146260       -2.6486983227
 O         -4.1414224511       -0.2790957979       -1.6158466139
 C         -3.1224920957       -1.1141029654       -1.1693359117
 O         -2.9155139398       -2.0879293034       -1.9147795365
 O         -2.2236531225        0.7259229646        1.8168679365
 C         -1.3499036996       -1.6252056991        0.5864531011
 C         -0.0243606305       -1.1705573105        0.0307217624
 C          0.1998450988       -1.1074994272       -1.3414670986
 C          1.4204930546       -0.6804318698       -1.8307363168
 C          2.4348098895       -0.2977457291       -0.9695855352
 C          2.2204268607       -0.3516921226        0.4007089228
 C          0.9960812330       -0.7924528360        0.8899664154
 H          0.8279313679       -0.8216158899        1.9581494772
 N          3.2287207841        0.0633366395        1.2813548407
 S          4.8201021751       -0.3828653720        1.0089178553
 O          4.9045449115       -1.6617672303        0.3434446461
 O          5.4593275873       -0.2878109445        2.3027203823
 C          5.4511557564        0.9033034785       -0.0479414908
 C          5.2885696721        2.2148345528        0.3531221876
 C          5.7837121083        3.2271462181       -0.4531168067
 C          6.4323793578        2.9128252341       -1.6381391227
 C          6.5908620496        1.5910015980       -2.0249749643
 C          6.0967653885        0.5735767866       -1.2234146701
 H          6.1920267130       -0.4677443915       -1.4875341674
 H          7.0955855338        1.3488976571       -2.9464716429
 H          6.8164323665        3.7029715022       -2.2638610333
 H          5.6616181222        4.2563249754       -0.1559782845
 H          4.7801521599        2.4184312161        1.2808447956
 H          2.9829500503        0.0011356938        2.2581235289
 H          3.3851875047        0.0384121744       -1.3503021515
 H          1.5837984101       -0.6396634844       -2.8970863774
 H         -0.5925075188       -1.3977228833       -2.0150949837
 H         -1.3475645373       -1.3966620791        1.6643674192
 C         -1.5840431979       -3.1224116203        0.4464986186
 C         -0.7637146842       -4.0208313122       -0.4245442370
 C         -0.6156198111       -4.0882596489        1.0639584249
 H         -1.0018916844       -4.9487141403        1.5889645445
 H          0.2884424995       -3.6792624754        1.4910324824
 H         -1.2760699251       -4.8217814621       -0.9351359887
 H          0.0428819834       -3.5891510437       -0.9955029724
 H         -2.6363277487       -3.3745809160        0.5295957120
