  62
        -98.93980254
 C          2.4913052897        0.9910231994       -0.0459928816
 C          3.6851664597        1.0540253200        0.7114372883
 C          4.8886841097        0.5369591496        0.0512291685
 C          4.8072999696        0.0564746687       -1.2030939911
 C          5.9500055496       -0.4864284918       -2.0178627408
 C          6.2717507097       -1.9606961316       -1.7370252099
 C          6.9516364998       -2.2342517306       -0.3948588897
 H          7.3137296398       -3.2638836106       -0.4232970691
 H          7.8221988597       -1.5859278405       -0.2906852002
 C          6.0346367298       -2.0679773998        0.8250009902
 H          6.1662767499       -2.9179192294        1.4985551608
 H          4.9912974898       -2.0771794401        0.5003503603
 C          6.2886768199       -0.8001647493        1.6406964193
 H          7.2866967099       -0.8425495389        2.0824992793
 H          5.5612709499       -0.7655014487        2.4559456094
 C          6.1637679797        0.5018471502        0.8386443085
 H          6.1429524198        1.3373928807        1.5426159079
 H          7.0227954497        0.6211094198        0.1789012483
 H          6.9353443496       -2.3065758621       -2.5329100697
 H          5.3465968897       -2.5382811717       -1.8013020194
 H          6.8405621596        0.1199931884       -1.8505365913
 H          5.6561460295       -0.3923939025       -3.0654465209
 O          3.6420941996        0.0269585182       -1.9030326010
 C          2.4544033696        0.4720976685       -1.3401565712
 O          1.4618441395        0.3625577980       -2.0844845311
 O          3.7413605998        1.5192013508        1.8817025279
 C          1.2001455397        1.4883599098        0.5779015782
 C          0.2008507097        0.3602392998        0.6562404490
 C          0.5871366998       -0.8314560298        1.2652725798
 C         -0.2885233901       -1.8952951498        1.3580702706
 C         -1.5708647702       -1.7969630502        0.8464021606
 C         -1.9712710603       -0.6106838006        0.2488027998
 C         -1.0904895403        0.4626433494        0.1660040390
 H         -1.4173334104        1.3777260391       -0.3025524716
 N         -3.2658458003       -0.5038802410       -0.2872041902
 S         -4.5410780502       -1.1875888405        0.5824729904
 O         -4.4303929801       -0.8407149195        1.9818106002
 O         -4.5947705302       -2.5977774707        0.2876810514
 C         -5.9355031603       -0.3605367610       -0.1566637601
 C         -6.4695474603        0.7518676494        0.4657115192
 C         -7.5382332404        1.4039757889       -0.1290404212
 C         -8.0492469504        0.9372696081       -1.3307879708
 C         -7.5020720804       -0.1803848023       -1.9435441601
 C         -6.4344082904       -0.8381215919       -1.3537602697
 H         -5.9832767804       -1.7147504321       -1.7885179991
 H         -7.9037888705       -0.5411250930       -2.8766561198
 H         -8.8810126605        1.4464417277       -1.7914856811
 H         -7.9675924204        2.2713282192        0.3460381983
 H         -6.0457540602        1.0739262500        1.4034143790
 H         -3.4819072004        0.4364504088       -0.5881028708
 H         -2.2643337201       -2.6202155601        0.9089245612
 H          0.0277674900       -2.8131131694        1.8314801812
 H          1.5894270199       -0.9122146395        1.6643800998
 H          1.4665024797        1.7773510805        1.6056327279
 C          0.6944967396        2.7123211893       -0.1555174326
 C         -0.1619544004        3.7167564197        0.5548010467
 C          1.2556242895        4.0538425795        0.2051837164
 H          1.4382538894        4.7656866590       -0.5857235341
 H          1.9865928196        4.0876308701        0.9997321263
 H         -0.9525213805        4.2035051493        0.0036285365
 H         -0.3974116703        3.5277878804        1.5913398669
 H          0.4986993895        2.5180980585       -1.2041654925
