  62
        -98.94521244
 C          2.0782919951        1.4610045366       -0.0072095041
 C          1.8952772602        0.4714132067       -1.0032824238
 C          2.7892566546       -0.6939986252       -0.9214034705
 C          3.6946454306       -0.7694639260        0.0702760487
 C          4.6178941362       -1.9286378774        0.3056545359
 C          3.9837322987       -2.9628092552        1.2465882528
 C          2.5621292803       -3.3679702794        0.8558598394
 H          2.2369077052       -4.1262752304        1.5711874838
 H          1.8994790866       -2.5073503790        0.9727716762
 C          2.4294893401       -3.9173560715       -0.5712676833
 H          1.8060184360       -4.8132823719       -0.5479031562
 H          3.4091555993       -4.2172915873       -0.9450966002
 C          1.7831054247       -2.9491670415       -1.5635165314
 H          0.8469800371       -2.5682478557       -1.1483256967
 H          1.5396271203       -3.5058159075       -2.4722891630
 C          2.6434136861       -1.7504104868       -1.9806307496
 H          3.6237058900       -2.0960290510       -2.3152653003
 H          2.1456550847       -1.2625940153       -2.8237772921
 H          3.9553369989       -2.5415439834        2.2541401232
 H          4.6238984847       -3.8467699903        1.2666165908
 H          5.5348648372       -1.5505474974        0.7608839341
 H          4.8628761946       -2.3914770684       -0.6483846568
 O          3.8384861941        0.1970159019        1.0121385046
 C          3.0405540968        1.3261938100        0.9989369287
 O          3.2808553509        2.1320313793        1.9200597904
 O          1.0410939263        0.5398370922       -1.9267597767
 C          1.2374929899        2.7283922565        0.0460211074
 C         -0.1481783573        2.3928326446        0.5432668091
 C         -0.4512890993        2.5319791674        1.8938731437
 C         -1.7076727076        2.2055776811        2.3716501429
 C         -2.6847215338        1.7271833739        1.5162093006
 C         -2.3838881722        1.5603868195        0.1702933175
 C         -1.1259148560        1.9020764157       -0.3095009017
 H         -0.8956454058        1.7550588802       -1.3529638381
 N         -3.3591319634        1.0726991291       -0.7181085322
 S         -4.2549353838       -0.2858625103       -0.3404726104
 O         -4.9463545807       -0.6290483046       -1.5615144973
 O         -5.0843388333       -0.0044196075        0.8046051700
 C         -3.0787292392       -1.5631717556        0.0659751203
 C         -2.5934805080       -1.6576024215        1.3550406511
 C         -1.6613160001       -2.6404303082        1.6482065366
 C         -1.2394835560       -3.5121017957        0.6566714365
 C         -1.7387623857       -3.4060825328       -0.6326423145
 C         -2.6611431737       -2.4178988283       -0.9348457111
 H         -3.0773149981       -2.3039690299       -1.9228617505
 H         -1.4105163558       -4.0871436025       -1.4013723905
 H         -0.5168751218       -4.2779293007        0.8896419024
 H         -1.2691846458       -2.7235130085        2.6492794581
 H         -2.9550650163       -0.9746470280        2.1056442284
 H         -3.0321973867        1.0152156084       -1.6719465482
 H         -3.6713462119        1.4776226230        1.8718658543
 H         -1.9319903774        2.3295340961        3.4204490049
 H          0.3132235045        2.8929177348        2.5674199225
 H          1.7158196056        3.3674865747        0.7998096322
 C          1.2264489765        3.4727396246       -1.2740788900
 C          0.7741264696        4.9007055778       -1.2974992661
 C          2.2211049955        4.5689159965       -1.5028467643
 H          2.6428732008        4.6839170408       -2.4901825199
 H          2.9145774197        4.7907422711       -0.7045830485
 H          0.1999499212        5.2470028305       -2.1431833815
 H          0.4851971444        5.3471974707       -0.3579050819
 H          0.9783512242        2.8506456482       -2.1237691870
