  62
        -98.94660113
 C          2.4989231820        0.3281775494       -0.0177618146
 C          2.3265178047        1.4742281170       -0.8274386212
 C          1.6560835019        2.6117851131       -0.1909852082
 C          1.2554497540        2.5166925292        1.0900584635
 C          0.5277935730        3.5791371973        1.8681517152
 C         -0.9873132573        3.5794335132        1.6190339010
 C         -1.4237781268        4.1638461921        0.2744163761
 H         -0.9457015419        5.1331831231        0.1260626066
 H         -2.5003958284        4.3347884265        0.3358718932
 C         -1.1402047563        3.2530317260       -0.9279846970
 H         -2.0187546138        3.2304626811       -1.5777074831
 H         -0.9747931222        2.2333611782       -0.5723577385
 C          0.0452200329        3.6854238657       -1.7914663131
 H         -0.1785640539        4.6428796099       -2.2682907421
 H          0.1844996527        2.9402464120       -2.5789359440
 C          1.3705373399        3.8205430707       -1.0315684773
 H          1.3594336730        4.7172975096       -0.4124099667
 H          2.1764722096        3.9101373818       -1.7646574251
 H         -1.4508028880        4.1650378230        2.4168841500
 H         -1.3498986526        2.5510517460        1.7010447268
 H          0.9410164396        4.5611765198        1.6348315755
 H          0.7048393505        3.3673680462        2.9249079164
 O          1.4870291641        1.4155122412        1.8525715726
 C          2.0708198978        0.2837559242        1.3096639746
 O          2.1760835353       -0.6737929439        2.1031659320
 O          2.7061830509        1.5380510681       -2.0292810686
 C          3.0720395082       -0.9342186378       -0.6355305625
 C          2.0756530447       -2.0583731626       -0.4826214210
 C          2.4351565950       -3.3658073928       -0.1830582449
 C          1.4625061926       -4.3334090006        0.0038516305
 C          0.1198219797       -4.0121777369       -0.0701089357
 C         -0.2495736180       -2.7098178304       -0.3856728116
 C          0.7269253956       -1.7613734674       -0.6337575977
 H          0.4298232886       -0.7557774719       -0.8894892848
 N         -1.6085700575       -2.3259609072       -0.4618116714
 S         -2.1085296705       -1.0912320701        0.5867474523
 O         -1.2872899109        0.0755938386        0.4131896565
 O         -2.2126392847       -1.6218077081        1.9317778257
 C         -3.7409165493       -0.7822311377       -0.0592345956
 C         -4.8265809640       -1.4420099970        0.4837248260
 C         -6.0848711743       -1.2167957304       -0.0521423340
 C         -6.2346731556       -0.3419675049       -1.1174848222
 C         -5.1354064276        0.3144396805       -1.6507451564
 C         -3.8748780834        0.0926992228       -1.1195133990
 H         -2.9929981700        0.5853750712       -1.4956563253
 H         -5.2546760015        0.9966959268       -2.4769328770
 H         -7.2145091002       -0.1678290894       -1.5331882261
 H         -6.9416685111       -1.7229203386        0.3625183437
 H         -4.6652709502       -2.1025512661        1.3203614559
 H         -2.2211261056       -3.1173590077       -0.3023743327
 H         -0.6375231246       -4.7584054869        0.1201725298
 H          1.7547305587       -5.3458714118        0.2387402063
 H          3.4764407899       -3.6253730591       -0.0808584534
 H          3.1940505271       -0.7108552205       -1.7064018974
 C          4.4299824791       -1.2550208302       -0.0464562362
 C          5.4779180723       -1.9339775867       -0.8759155495
 C          5.6237581484       -0.4851382825       -0.5235773680
 H          6.3745699359       -0.1994163686        0.1976577317
 H          5.4579130352        0.2509775244       -1.2965095291
 H          6.1343578496       -2.6441781736       -0.3960081430
 H          5.2250888339       -2.1826161881       -1.8954965119
 H          4.3750632678       -1.4921755720        1.0105067719
