  62
        -98.95003691
 C         -1.9061495443       -1.0375815656        0.0222513353
 C         -1.3316410051       -1.8146488800       -1.0137771230
 C         -0.2599377405       -2.7321222012       -0.6087057971
 C          0.0836868058       -2.8274484933        0.6887113779
 C          1.1103290259       -3.7620559479        1.2697634941
 C          2.5547194052       -3.2484326322        1.2000657293
 C          3.1771549313       -3.2531825053       -0.1961326622
 H          4.2480772308       -3.0812942765       -0.0731360508
 H          3.0542250722       -4.2376728494       -0.6487683396
 C          2.6121679050       -2.1787825663       -1.1345531109
 H          2.0917805915       -1.4159099660       -0.5514522490
 H          3.4286856168       -1.6659322580       -1.6490125783
 C          1.6620324405       -2.6973101738       -2.2140867961
 H          1.2859739867       -1.8293219683       -2.7633839709
 H          2.2111477375       -3.3297662567       -2.9160068486
 C          0.4610116056       -3.4901438522       -1.6810441125
 H          0.7878953286       -4.4619573054       -1.3100960998
 H         -0.2386256648       -3.6464960534       -2.5061732367
 H          2.5900491232       -2.2346418360        1.6049310018
 H          3.1583174030       -3.8898135499        1.8460821837
 H          0.8441608477       -3.8968750352        2.3203509339
 H          1.0442071400       -4.7284674605        0.7688277884
 O         -0.5137657266       -2.0856600824        1.6580583330
 C         -1.4847540018       -1.1410176184        1.3476880205
 O         -1.8838665135       -0.4840196209        2.3269940792
 O         -1.7057676800       -1.7511220503       -2.2157930773
 C         -2.9598053821       -0.0014037146       -0.3342738199
 C         -2.3812194098        1.3690015519       -0.0757691700
 C         -2.9252944905        2.2897942859        0.8091431022
 C         -2.2898809178        3.4994211938        1.0328567688
 C         -1.1008499829        3.8066904421        0.3975875291
 C         -0.5526409338        2.8964435975       -0.5007381354
 C         -1.2084661824        1.7004359879       -0.7453822268
 H         -0.7875252568        1.0025115277       -1.4550902245
 N          0.6477153981        3.1871606087       -1.1717047029
 S          1.8574042036        2.0496685939       -1.3556677834
 O          2.9597838735        2.7929147002       -1.9257285823
 O          1.3766224385        0.9323744501       -2.1241035852
 C          2.2931368171        1.5384861540        0.2971063247
 C          1.4460067752        0.6979080316        0.9910961211
 C          1.7684790976        0.3397878324        2.2907375430
 C          2.9348882698        0.8164834562        2.8691697270
 C          3.7798334230        1.6552279406        2.1578848801
 C          3.4547619046        2.0266400485        0.8632370202
 H          4.0803847014        2.6767131684        0.2733380809
 H          4.6872790527        2.0222613217        2.6095408614
 H          3.1832647188        0.5297199140        3.8788502260
 H          1.0960470164       -0.3047020464        2.8365892943
 H          0.5458632622        0.3332455684        0.5202981669
 H          1.0465238710        4.0850043867       -0.9380552068
 H         -0.5993145232        4.7430747520        0.5892985662
 H         -2.7199660018        4.2070269952        1.7252010543
 H         -3.8382611586        2.0573694888        1.3314429160
 H         -3.1163284459       -0.1074092866       -1.4179027043
 C         -4.2669577895       -0.2681145749        0.3786470839
 C         -5.5475553940        0.2651868236       -0.1884325351
 C         -5.2568028749       -1.2036032295       -0.2455813827
 H         -5.8149310455       -1.8671879405        0.3976547069
 H         -4.9967421212       -1.6386272524       -1.1997550373
 H         -6.3103147707        0.6097820565        0.4931108234
 H         -5.4895606705        0.8288730820       -1.1073529510
 H         -4.1589470017       -0.3048469506        1.4562954311
