  62
        -98.94349343
 C          1.5374280759        1.4706753430        0.0235363572
 C          2.0865972401        0.5518854681        0.9502538822
 C          3.0946597856       -0.3734555889        0.4170748783
 C          3.4394144223       -0.2937267773       -0.8811048730
 C          4.3875063238       -1.2296927368       -1.5722978496
 C          3.6360723485       -2.4226959302       -2.1811558671
 C          2.6616157385       -3.0992479985       -1.2160954704
 H          1.8570666730       -2.4004687832       -0.9731782553
 H          2.2071864040       -3.9379447783       -1.7483495352
 C          3.3023712714       -3.6039860281        0.0845911108
 H          2.9309661102       -4.6102938796        0.2891251054
 H          4.3832085294       -3.6776651753       -0.0407970814
 C          2.9905272759       -2.7517795713        1.3160974334
 H          1.9117751286       -2.5925991398        1.3872487349
 H          3.3029021323       -3.3088611353        2.2030594094
 C          3.6768888167       -1.3813313909        1.3673443518
 H          4.7495368290       -1.4967970167        1.2012129285
 H          3.5250770859       -0.9709252939        2.3696888073
 H          3.0704487645       -2.0698363247       -3.0470645189
 H          4.3692678326       -3.1519258423       -2.5304143125
 H          4.8920491158       -0.6838269842       -2.3712079166
 H          5.1311582817       -1.5802878757       -0.8594235508
 O          2.9093588147        0.6192949836       -1.7354674613
 C          1.9322139101        1.5122825208       -1.3135397668
 O          1.5053918815        2.2661190062       -2.2082374097
 O          1.7410119659        0.5019173797        2.1599445510
 C          0.4573575221        2.4176937201        0.5023837217
 C         -0.8606166288        2.1668765901       -0.1908473750
 C         -1.8337293854        3.1548141800       -0.2981355508
 C         -3.0612417899        2.8817978194       -0.8767662088
 C         -3.3497144129        1.6193883422       -1.3639455750
 C         -2.3835503784        0.6291153528       -1.2692374278
 C         -1.1587256768        0.9017475978       -0.6788414081
 H         -0.4194995688        0.1136176941       -0.5994081007
 N         -2.6881096117       -0.6757749253       -1.7343356392
 S         -3.5932971375       -1.5725151180       -0.6424324131
 O         -3.6907261268       -2.9030861648       -1.1972083151
 O         -4.8332335536       -0.8794912891       -0.4075999468
 C         -2.6014567478       -1.5942378983        0.8389516973
 C         -1.7386848523       -2.6511049266        1.0501392718
 C         -0.8924994547       -2.6167751572        2.1468376146
 C         -0.9047242461       -1.5197320613        2.9946408282
 C         -1.7757437638       -0.4659513541        2.7669529181
 C         -2.6356084249       -0.4999230459        1.6808633883
 H         -3.3303613497        0.2986998676        1.4759096523
 H         -1.7776103255        0.3868503947        3.4263458922
 H         -0.2251379477       -1.4785865055        3.8307766378
 H         -0.2216369890       -3.4406538232        2.3332376587
 H         -1.7530682611       -3.4803081184        0.3603841289
 H         -1.8637198625       -1.2072562231       -1.9787146356
 H         -4.3052187249        1.3814561506       -1.8014950943
 H         -3.8035792193        3.6618622256       -0.9483820373
 H         -1.6285576027        4.1440152759        0.0777889299
 H          0.3193501367        2.1786225009        1.5686966129
 C          0.9145021897        3.8589495547        0.3858693966
 C          0.5342511636        4.8686700740        1.4264657010
 C          1.9439880553        4.3679788639        1.3488732826
 H          2.7124266876        5.0308977421        0.9806959400
 H          2.2867840471        3.6849350349        2.1124757858
 H          0.3342901895        5.8819732059        1.1117705240
 H         -0.0720866560        4.5340129790        2.2546927071
 H          0.9891741297        4.1878722659       -0.6444355046
