  62
        -98.92886937
 C         -2.3210677379       -0.7976328207        0.3358470594
 C         -3.6194725258       -0.8403918295        0.9050127447
 C         -4.7328192759       -0.4608380131        0.0258144879
 C         -4.4786465237       -0.0825065280       -1.2393334057
 C         -5.4912042828        0.2848508464       -2.2918195345
 C         -6.3211890282        1.5556412689       -2.0267297135
 C         -7.6698584687        1.2991724838       -1.3429101707
 H         -8.4208976431        1.9519094664       -1.7925300252
 H         -7.9803723641        0.2746514761       -1.5517054549
 C         -7.7100280070        1.5474705771        0.1679584795
 H         -8.6261670013        1.0975815061        0.5566548781
 H         -7.7687995767        2.6228137922        0.3513038127
 C         -6.5196869807        1.0125026705        0.9642966332
 H         -6.7632172171        1.0771197405        2.0267489833
 H         -5.6526896061        1.6589942126        0.8075702542
 C         -6.1114523818       -0.4328370078        0.6189296684
 H         -6.0725303067       -1.0354284616        1.5286428213
 H         -6.8314621766       -0.8839514769       -0.0623173972
 H         -6.5140999552        2.0144003974       -2.9978181090
 H         -5.7279158293        2.2635655021       -1.4483847516
 H         -6.1645699238       -0.5625131764       -2.4401568413
 H         -4.9173179486        0.4201567651       -3.2108594226
 O         -3.2157229985       -0.0271538311       -1.7402861959
 C         -2.1060245477       -0.3621604733       -0.9729876256
 O         -1.0259570965       -0.2335960861       -1.5770347422
 O         -3.8395376945       -1.1867356198        2.0964449565
 C         -1.1540979032       -1.1710005952        1.2331892985
 C         -0.0926355357       -0.1025243569        1.1707276230
 C         -0.3533684709        1.1343147611        1.7537853058
 C          0.5829073744        2.1493592543        1.7073475799
 C          1.7976336125        1.9552991365        1.0738596497
 C          2.0659476533        0.7273791844        0.4849094023
 C          1.1290806944       -0.2970974007        0.5472728642
 H          1.3410981765       -1.2415778883        0.0703947582
 N          3.2853901357        0.5319856414       -0.1898610403
 S          4.6933725126        1.0431442131        0.5877180285
 O          4.7048459404        0.5708838170        1.9553054431
 O          4.8243296904        2.4683162817        0.4164764854
 C          5.9368652893        0.2023411814       -0.3722521239
 C          6.3505230920        0.7679792328       -1.5632922098
 C          7.2975776579        0.1037581891       -2.3262875468
 C          7.8115098081       -1.1079752461       -1.8887076927
 C          7.3874590916       -1.6624568740       -0.6904367334
 C          6.4395075582       -1.0040385784        0.0770046646
 H          6.0878932642       -1.3931696046        1.0191585243
 H          7.7910509126       -2.6031095776       -0.3518166368
 H          8.5494114461       -1.6222750768       -2.4839521883
 H          7.6317002178        0.5324769180       -3.2572858299
 H          5.9301302543        1.7150707308       -1.8585737368
 H          3.3810098665       -0.4152315314       -0.5297115122
 H          2.5382792464        2.7374430457        1.0291928110
 H          0.3667922676        3.1030668621        2.1657846959
 H         -1.3062157527        1.2913718005        2.2415436725
 H         -1.5821837768       -1.1600801430        2.2493453029
 C         -0.6103862355       -2.5746538576        1.0144120302
 C         -1.5272451926       -3.6963573337        0.6302961775
 C         -0.4958060134       -3.2066747318       -0.3392410345
 H          0.3586878355       -3.8381546530       -0.5358395592
 H         -0.8190622632       -2.6323620309       -1.1928898053
 H         -1.3842258623       -4.6605381114        1.0943360077
 H         -2.5621971378       -3.4498275434        0.4429580805
 H          0.1709015670       -2.8150098904        1.7298377533
