  62
        -98.94449976
 C          2.6403114245        1.2838123738        0.1114560046
 C          2.5826721561        0.2941585147       -0.8997175899
 C          3.5249036007       -0.8263255780       -0.7557637769
 C          4.3739059816       -0.8510174806        0.2870883703
 C          5.3461570916       -1.9559235686        0.5796282230
 C          4.7232709351       -3.0160778965        1.4984701569
 C          3.3446509880       -3.4964985131        1.0443140577
 H          3.0199642143       -4.2661712882        1.7479434275
 H          2.6317498679       -2.6718454052        1.1227183801
 C          3.3065328976       -4.0617957231       -0.3823149295
 H          2.7218132593       -4.9840695911       -0.3773469360
 H          4.3156640141       -4.3186244656       -0.7068741674
 C          2.6627153736       -3.1352304615       -1.4157533144
 H          1.6863943612       -2.8015910910       -1.0519388172
 H          2.4883455936       -3.7129670503       -2.3277887393
 C          3.4841379868       -1.8998786660       -1.8065959623
 H          4.4945042189       -2.2043376904       -2.0872299658
 H          3.0060536911       -1.4473208898       -2.6803820063
 H          4.6234883353       -2.5913987649        2.4999013153
 H          5.4050393083       -3.8664531620        1.5557358411
 H          6.2167914983       -1.5244057932        1.0762030319
 H          5.6622669842       -2.4118462136       -0.3564839767
 O          4.4096055932        0.1228026904        1.2312426819
 C          3.5386362127        1.1962858522        1.1792408808
 O          3.6637077019        2.0019062743        2.1226797370
 O          1.7983379897        0.3307438318       -1.8853679680
 C          1.7009150902        2.4816482109        0.1230082130
 C          0.3198099831        1.9902525283        0.4833608310
 C         -0.0582355218        1.9211102891        1.8211518702
 C         -1.2894789461        1.4047399016        2.1802789919
 C         -2.1649227224        0.9365040186        1.2155960858
 C         -1.7894758703        0.9857366621       -0.1196664224
 C         -0.5630186616        1.5273672966       -0.4801926527
 H         -0.2755084515        1.5420961050       -1.5195704191
 N         -2.6625401769        0.4931127751       -1.1065256442
 S         -3.2964745287       -1.0462044030       -0.8806242967
 O         -2.4278333093       -1.8710596941       -0.0724687897
 O         -3.5975952501       -1.5340339402       -2.2090417099
 C         -4.8275895543       -0.7436762756       -0.0213300143
 C         -5.7260413757        0.1407954113       -0.5855883401
 C         -6.9260175683        0.3817216285        0.0639727973
 C         -7.2079835089       -0.2649884760        1.2581884465
 C         -6.2976202650       -1.1533073068        1.8096853133
 C         -5.0944667056       -1.3974243082        1.1655019657
 H         -4.3537871080       -2.0750162868        1.5598728713
 H         -6.5185136619       -1.6559595013        2.7376407169
 H         -8.1426797816       -0.0759478482        1.7620905605
 H         -7.6363928063        1.0718109757       -0.3619909196
 H         -5.4700494542        0.6192664191       -1.5160103775
 H         -2.2900989821        0.5820952557       -2.0417027489
 H         -3.1209963489        0.5206217114        1.4890549246
 H         -1.5700202417        1.3615441960        3.2217603905
 H          0.6355066424        2.2612247871        2.5774367935
 H          2.0528893843        3.1277675901        0.9377977124
 C          1.7491438656        3.2670911537       -1.1711616152
 C          1.1725672210        4.6495476106       -1.2057662024
 C          2.6568730221        4.4544858275       -1.2707964738
 H          3.1624149114        4.6380308565       -2.2070628946
 H          3.2451785903        4.7083396019       -0.4009963965
 H          0.6565408334        4.9710173442       -2.0974196789
 H          0.7524242886        5.0362088252       -0.2896989845
 H          1.6464336104        2.6528143232       -2.0562249769
