  62
        -98.93327556
 C         -1.8446730238       -0.6788805720        0.0510487588
 C         -2.4116307561        0.6109486905        0.2095170946
 C         -3.8243272781        0.7720379880       -0.1708111784
 C         -4.4988255152       -0.2871347108       -0.6490456552
 C         -5.9250493549       -0.3546994994       -1.1353693490
 C         -6.9891128505        0.3876904354       -0.3161102212
 C         -6.7334616230        0.4238130158        1.1976572057
 H         -7.6314324680        0.0850253821        1.7176610640
 H         -5.9270184344       -0.2638873830        1.4577436041
 C         -6.3937270893        1.8246196418        1.7123953374
 H         -6.5858421705        1.8603782062        2.7874878668
 H         -7.0635017628        2.5445678532        1.2370339753
 C         -4.9477498902        2.2701962734        1.4970045631
 H         -4.8694750566        3.3176001268        1.7987910423
 H         -4.2819031079        1.6997273773        2.1503104826
 C         -4.4181328367        2.1318763462        0.0602820369
 H         -5.1911306076        2.3631560430       -0.6687612161
 H         -3.5974948329        2.8438701596       -0.0647085488
 H         -7.9410002767       -0.1084770244       -0.5128965547
 H         -7.0860591668        1.4082334255       -0.6837705905
 H         -5.9492189452        0.0095523495       -2.1665848814
 H         -6.1640072905       -1.4204983298       -1.1654229970
 O         -3.9160772373       -1.5088822276       -0.7908240149
 C         -2.5884667412       -1.7447287094       -0.4551004289
 O         -2.2278360996       -2.9182969228       -0.6544441892
 H          1.6382131658        0.9459210822        0.2349628434
 C          1.5212437234        0.3484753120       -0.6566466627
 C          0.5172197277       -0.6065300616       -0.7264758949
 C          0.3569351867       -1.3288886463       -1.9060249615
 C          1.1866897153       -1.0963328560       -2.9867696872
 C          2.1920839964       -0.1480490775       -2.9126091164
 C          2.3549488121        0.5850211608       -1.7428250399
 N          3.3515939551        1.5627786481       -1.6557396830
 S          4.0716120153        1.9689407585       -0.2114548393
 O          3.1882955623        2.7771610417        0.5906037088
 O          5.3167606155        2.5947657419       -0.6028147392
 C          4.4165625967        0.4307210955        0.6254627922
 C          4.9926352203       -0.6063160880       -0.0817081334
 C          5.2905483007       -1.7858567164        0.5813471429
 C          5.0184518873       -1.9064287283        1.9353933036
 C          4.4448507390       -0.8548725419        2.6329903813
 C          4.1375690965        0.3248167553        1.9728963459
 H          3.6786807027        1.1622119326        2.4743313661
 H          4.2295771550       -0.9497417258        3.6851852350
 H          5.2506040412       -2.8254284663        2.4493575742
 H          5.7327662437       -2.6068510044        0.0406692245
 H          5.2023891126       -0.4845869610       -1.1316587517
 H          3.9824395244        1.6203613320       -2.4403727156
 H          2.8368061381        0.0355608701       -3.7584186388
 H          1.0517444069       -1.6617214996       -3.8964650979
 H         -0.4264273840       -2.0692628724       -1.9634854100
 C         -0.3892603922       -0.8384327163        0.4551784283
 H         -0.2074723769       -0.0193699079        1.1695724076
 C         -0.1065501866       -2.1469606146        1.1809410555
 C          0.7708893657       -3.2297158796        0.6348656980
 C          1.2500781751       -2.3859397502        1.7747744995
 H          1.3155037801       -2.8259340845        2.7579714471
 H          2.0142469135       -1.6521763428        1.5655049159
 H          0.4768991564       -4.2499264081        0.8278271971
 H          1.2238736663       -3.0836068295       -0.3323916644
 H         -0.9588819927       -2.4746643513        1.7672958281
 O         -1.7594404846        1.5943141367        0.6538526650
