  62
        -98.94321523
 C          2.3840458670        0.4598261677        0.1002714563
 C          3.4666235771        0.4561655449        1.0118353872
 C          4.4735104165       -0.5936340784        0.8091262558
 C          4.3045601616       -1.4823434203       -0.1873357043
 C          5.2748906872       -2.5732412032       -0.5350099366
 C          6.2948404569       -2.0992093258       -1.5798627847
 C          6.9494207502       -0.7600520194       -1.2408297459
 H          7.6694011024       -0.5400838844       -2.0320931840
 H          6.1904936783        0.0251720921       -1.2699084149
 C          7.6592229978       -0.7274760604        0.1198748221
 H          8.6313339357       -0.2454077050       -0.0034179346
 H          7.8441500856       -1.7450473583        0.4658830408
 C          6.9117663714        0.0482707586        1.2060259556
 H          6.6422767243        1.0383613856        0.8296200705
 H          7.5919497090        0.1934103418        2.0495999863
 C          5.6442113813       -0.6217513861        1.7512528497
 H          5.8709968457       -1.6459441882        2.0543616542
 H          5.3284720955       -0.0630931183        2.6373352752
 H          7.0643186204       -2.8663932294       -1.6835282053
 H          5.7845291066       -1.9973445684       -2.5403687260
 H          5.7884040009       -2.8968559634        0.3682918752
 H          4.7131587731       -3.4145394315       -0.9442859199
 O          3.2406396361       -1.4592471162       -1.0299804510
 C          2.2582201344       -0.4864774001       -0.9166302690
 O          1.3489254262       -0.5733501872       -1.7629150126
 H         -1.0755684485        1.8287032430       -1.1209685274
 C         -1.1446413228        1.1383231613       -0.2948718440
 C         -0.0295249542        0.8753869919        0.4833447043
 C         -0.1579809399       -0.0151555654        1.5468376060
 C         -1.3636012601       -0.6353817789        1.8084093581
 C         -2.4708902997       -0.3839964428        1.0160832887
 C         -2.3584738206        0.5102458495       -0.0382716872
 N         -3.4702511872        0.7639656392       -0.8546872170
 S         -4.9756681042        1.0088324757       -0.1642791046
 O         -5.7162504854        1.7730623413       -1.1441941151
 O         -4.8681409100        1.5901171281        1.1536203249
 C         -5.6746258290       -0.6253021680       -0.0575418565
 C         -6.1865810079       -1.0784116764        1.1423810283
 C         -6.7421161788       -2.3473000823        1.1979218024
 C         -6.7768267769       -3.1358410831        0.0581951449
 C         -6.2601140469       -2.6652325573       -1.1398410876
 C         -5.7043836011       -1.3975091538       -1.2021672824
 H         -5.2947944293       -0.9959784486       -2.1140313863
 H         -6.2879132429       -3.2815587246       -2.0240672817
 H         -7.2087348809       -4.1231524245        0.1033900659
 H         -7.1443475534       -2.7150445015        2.1281981833
 H         -6.1338143142       -0.4326505775        2.0045642070
 H         -3.2942910452        1.4113782749       -1.6084969216
 H         -3.4135353387       -0.8681508636        1.2121162826
 H         -1.4443086853       -1.3251003779        2.6349861167
 H          0.7067580578       -0.2153680166        2.1649662644
 C          1.3109291573        1.5241947314        0.2420194225
 H          1.5802969913        2.0907693357        1.1458235790
 C          1.3382737035        2.4637251636       -0.9448731396
 C          0.8313279501        3.8674528300       -0.8056644776
 C          2.3017593646        3.6109236987       -0.9384458683
 H          2.7914794067        3.8785397507       -1.8627898728
 H          2.9242863177        3.7312456595       -0.0639160816
 H          0.4534258558        4.1682930978        0.1599426233
 H          0.3128318259        4.3160682243       -1.6399272867
 H          1.1799525760        1.9512642763       -1.8874387731
 O          3.5816170172        1.2877130873        1.9525234148
