  62
        -98.94046104
 C         -1.4950037720       -1.2432844846       -0.0207835445
 C         -2.5751962522       -0.9497878338        0.8460511890
 C         -3.3480393815        0.2761993586        0.5689190588
 C         -2.9681016963        1.0600191323       -0.4569971417
 C         -3.6041321286        2.3362044381       -0.9400192960
 C         -4.8964552194        2.0888717710       -1.7352664237
 C         -5.8381125902        1.0531634790       -1.1264938876
 H         -6.6534265820        0.8884234769       -1.8359822083
 H         -5.3076937159        0.1052576731       -1.0185173044
 C         -6.4575429016        1.4441628374        0.2131701269
 H         -7.0225283031        2.3708711563        0.0895633186
 H         -7.1667741123        0.6577695492        0.4841594236
 C         -5.4796147255        1.6229723824        1.3763221955
 H         -6.0717357106        1.6575706777        2.2955225501
 H         -4.9603843656        2.5750824182        1.3089653245
 C         -4.4774706924        0.4856514245        1.5483089105
 H         -5.0198831488       -0.4658178168        1.5910260918
 H         -4.0000648623        0.5876393119        2.5303269961
 H         -4.6177578182        1.7384569687       -2.7321715580
 H         -5.4204521706        3.0395559129       -1.8471226974
 H         -3.7862685231        3.0027047537       -0.1023494426
 H         -2.8810735947        2.8204038546       -1.6002498558
 O         -1.9107512223        0.7452640442       -1.2574986205
 C         -1.1556850893       -0.3996487326       -1.0772791826
 O         -0.2383903750       -0.5356040490       -1.9098228337
 O         -2.8921294674       -1.6863711745        1.8179174820
 C         -0.6585276986       -2.4791410857        0.2709067941
 C          0.6899216214       -1.9931602187        0.7390589125
 C          0.8588650112       -1.6114760261        2.0673784397
 C          2.0486157466       -1.0537818982        2.4971310499
 C          3.0854030210       -0.8374491365        1.6054854469
 C          2.9192095161       -1.2032854651        0.2766784664
 C          1.7407687514       -1.8035309470       -0.1445595949
 H          1.6275397438       -2.0748785263       -1.1817344047
 N          3.9393113312       -0.9232757108       -0.6513487396
 S          4.5786638739        0.6234435060       -0.5994552230
 O          4.9701300996        0.9265946121       -1.9588029433
 O          5.6436863627        0.6634233272        0.3736469605
 C          3.2585855725        1.7055429712       -0.0686379494
 C          2.0381771931        1.6520277859       -0.7121001520
 C          1.0225599145        2.4945119305       -0.2892052035
 C          1.2406910485        3.3758484024        0.7578689732
 C          2.4747529344        3.4235235878        1.3876950047
 C          3.4927977003        2.5800021933        0.9739042821
 H          4.4636533643        2.5760403788        1.4424557092
 H          2.6441146035        4.1105150861        2.2011045747
 H          0.4434823404        4.0257733532        1.0829772659
 H          0.0627758587        2.4421474823       -0.7791991845
 H          1.8656071889        0.9544852448       -1.5168111346
 H          3.6926012657       -1.1711510013       -1.5990710519
 H          4.0130102038       -0.3832728768        1.9149473326
 H          2.1673722716       -0.7704392238        3.5316790693
 H          0.0358501715       -1.7424195175        2.7557222716
 H         -1.1583598500       -2.9803244194        1.1099904947
 C         -0.5997638876       -3.4315376101       -0.9041088075
 C         -0.0818610195       -4.8219566939       -0.6923022882
 C         -1.5403701012       -4.5966212043       -0.9512005114
 H         -1.9468218822       -4.8915666066       -1.9071127025
 H         -2.2302382021       -4.7162032083       -0.1287484293
 H          0.5150407870       -5.2752009419       -1.4689712026
 H          0.2202113647       -5.0924414410        0.3081484706
 H         -0.3739421039       -2.9450208293       -1.8451348724
