  62
        -98.94488357
 C         -1.9410969790       -0.8543114863        0.0806577817
 C         -2.2731604082        0.0999549372        1.0694946922
 C         -2.4349572809        1.4816733377        0.6010419960
 C         -2.2212197140        1.7638727593       -0.6972695997
 C         -2.3905972507        3.1204725770       -1.3172780727
 C         -3.8162412033        3.3147742228       -1.8532228091
 C         -4.9086343204        2.9402745256       -0.8515051609
 H         -5.8699777312        3.1433082917       -1.3280942789
 H         -4.8631863102        1.8655036467       -0.6617192351
 C         -4.8303682322        3.6935386507        0.4836690430
 H         -5.8329998983        4.0297908116        0.7556004687
 H         -4.2086712896        4.5823827070        0.3714251893
 C         -4.3093485363        2.8572510585        1.6538953605
 H         -4.8692099715        1.9205665669        1.7130815288
 H         -4.4967716874        3.4103299990        2.5780243709
 C         -2.8129258029        2.5203946767        1.6194893196
 H         -2.2304359391        3.4325789857        1.4725277120
 H         -2.5423897407        2.0966229962        2.5913463379
 H         -3.9334747595        4.3586106353       -2.1497602207
 H         -3.9381066682        2.6918701658       -2.7422412858
 H         -2.1611907612        3.8826345018       -0.5748610288
 H         -1.6819430654        3.2078313199       -2.1428069343
 O         -1.8744357236        0.8251262072       -1.6145253072
 C         -1.7210253803       -0.5032582577       -1.2513341481
 O         -1.4072789529       -1.2614164592       -2.1895219349
 H          0.4959139846       -0.8956821193        0.8620421238
 C          0.7085710278       -1.8533294581        0.4077259011
 C         -0.3322264648       -2.7341032111        0.1407371290
 C         -0.0303058647       -3.9643599980       -0.4286193454
 C          1.2774026573       -4.2829468502       -0.7522793718
 C          2.3034610114       -3.3850222098       -0.5259007293
 C          2.0140037701       -2.1590636802        0.0639062235
 N          3.0356397599       -1.2312787567        0.3377174819
 S          2.6760669466        0.4139523776        0.2045867689
 O          2.0380691646        0.8508864941        1.4222504201
 O          1.9665140090        0.6820596861       -1.0264338484
 C          4.3286123885        1.0817397113        0.1286199311
 C          4.8709160136        1.4223227969       -1.0959493161
 C          6.1696983642        1.9048633548       -1.1432345837
 C          6.9010435267        2.0340135621        0.0278669156
 C          6.3429192267        1.6885775501        1.2498962774
 C          5.0446184210        1.2070715915        1.3043667870
 H          4.5645302680        0.9341131860        2.2295452573
 H          6.9134457154        1.7926659874        2.1585846879
 H          7.9115452653        2.4087801107       -0.0119592904
 H          6.6044561602        2.1770844229       -2.0914453166
 H          4.2608654632        1.3105181775       -1.9781672736
 H          3.8987365981       -1.4539437912       -0.1404052257
 H          3.3190058807       -3.6264083012       -0.8005990905
 H          1.4975646706       -5.2387178132       -1.2031487044
 H         -0.8204166294       -4.6684567631       -0.6320252941
 C         -1.7352016668       -2.3010584535        0.4893918941
 H         -1.8383911263       -2.3140926034        1.5853982363
 C         -2.8089566360       -3.1828960608       -0.1136565790
 C         -3.2712546400       -4.4148694271        0.6039902251
 C         -4.1626379638       -3.2130586991        0.5283053314
 H         -5.0341035566       -3.2526872181       -0.1077756209
 H         -4.2989844886       -2.6175729065        1.4193957006
 H         -2.8099483238       -4.6425981010        1.5529803783
 H         -3.5351676188       -5.2832553485        0.0194811712
 H         -2.7674429282       -3.2014424502       -1.1971233406
 O         -2.4285933780       -0.1920102380        2.2877389061
