  62
        -98.93624483
 C         -1.6938493018       -1.4941100524        0.5694249895
 C         -1.6765326640       -0.2590395192        1.2635756247
 C         -2.8556402688        0.6072945449        1.1117624024
 C         -3.8839491216        0.1780953526        0.3601183533
 C         -5.1467788879        0.9272215225        0.0382281230
 C         -5.0121115665        1.6581704865       -1.3081785065
 C         -4.3801213560        3.0471356619       -1.2245953795
 H         -4.2160199103        3.3904498637       -2.2485120287
 H         -5.0884163628        3.7353265804       -0.7584956374
 C         -3.0530496813        3.1206256528       -0.4636067742
 H         -2.4294855118        2.2662752132       -0.7341111304
 H         -2.5317929477        4.0216338777       -0.7926925410
 C         -3.2323418850        3.1847282466        1.0612938666
 H         -2.6406150455        4.0118479523        1.4592488399
 H         -4.2740302926        3.4172534137        1.2829315933
 C         -2.8149317992        1.9233909161        1.8384786766
 H         -1.7779993646        2.0231112293        2.1749914589
 H         -3.4272474745        1.8431805933        2.7426746862
 H         -4.4228352264        1.0237585012       -1.9752451640
 H         -6.0046665076        1.7639061066       -1.7506896131
 H         -5.9411472509        0.1828667279       -0.0471381039
 H         -5.3969288531        1.6187594869        0.8376818565
 O         -3.8735688961       -1.0242729303       -0.2723496126
 C         -2.7812769275       -1.8802557796       -0.2151440070
 O         -2.9236025870       -2.9162137612       -0.8882184133
 O         -0.7065950465        0.1062008281        1.9824142588
 C         -0.4495056392       -2.3549636295        0.6989771150
 C          0.5444571071       -1.9554563748       -0.3616336327
 C          0.1983468276       -1.9663827699       -1.7104078791
 C          1.1130211218       -1.5740259957       -2.6696176926
 C          2.3766976233       -1.1418866685       -2.3037624676
 C          2.7277005738       -1.1159671376       -0.9597937643
 C          1.8148661900       -1.5345978308        0.0001296514
 H          2.1017087860       -1.5057086248        1.0403500506
 N          4.0021017211       -0.6807524415       -0.5569161447
 S          4.1303965364        0.4724547787        0.6538779954
 O          5.5039707180        0.9201764436        0.5757508783
 O          3.7173996095       -0.0901308609        1.9126396588
 C          3.0418612937        1.7862293686        0.1352539957
 C          3.5628513740        2.7537379496       -0.7035645570
 C          2.7304792835        3.7523962637       -1.1801043378
 C          1.3912498024        3.7617909268       -0.8192827759
 C          0.8851212348        2.7840771757        0.0218198481
 C          1.7129114634        1.7829620173        0.5072735911
 H          1.3276602908        1.0194584127        1.1652431035
 H         -0.1545993035        2.7833197695        0.3079296190
 H          0.7386252355        4.5355119663       -1.1919917531
 H          3.1250660887        4.5164957327       -1.8303446672
 H          4.6115382824        2.7129659484       -0.9505287440
 H          4.6141232430       -0.4421236345       -1.3246742197
 H          3.0864152655       -0.8265101150       -3.0534233377
 H          0.8366637075       -1.5942420945       -3.7129863037
 H         -0.7934744543       -2.2874812044       -1.9927390916
 H         -0.0145102924       -2.0786411546        1.6732428441
 C         -0.7313897493       -3.8492340042        0.7403180049
 C         -0.2908746034       -4.8094469902       -0.3197385368
 C          0.3936107385       -4.8043309762        1.0119146281
 H          0.2245554058       -5.6274344037        1.6895449017
 H          1.3905415411       -4.3907491666        1.0597349898
 H         -0.9568778343       -5.6240129916       -0.5600290872
 H          0.2498461568       -4.4253346262       -1.1699649348
 H         -1.6801241190       -4.0701072551        1.2182357082
