  62
        -98.94024484
 C         -2.6308883194       -1.3294816606       -0.0716544591
 C         -2.4614948095       -0.1797840909       -0.8797723696
 C         -3.6697653096        0.6280368188       -1.1013428101
 C         -4.8380489496        0.2296827289       -0.5655365801
 C         -6.1311255297        0.9844992886       -0.6674424106
 C         -6.3060594700        1.9447310291        0.5173598590
 C         -5.0834183302        2.8222366994        0.7866104488
 H         -4.2536211301        2.1906925997        1.1130047892
 H         -5.3324592904        3.4803457097        1.6219465285
 C         -4.6322205101        3.6674774690       -0.4127471115
 H         -4.4185658203        4.6807281391       -0.0660602319
 H         -5.4404590000        3.7379062485       -1.1415926516
 C         -3.3669835100        3.1599770889       -1.1075377211
 H         -2.5793375500        2.9982910793       -0.3663223409
 H         -3.0166221600        3.9405609186       -1.7883841614
 C         -3.5260130696        1.8740741485       -1.9288531606
 H         -2.6116139295        1.7408027784       -2.5144735304
 H         -4.3651366996        1.9795262081       -2.6194769407
 H         -6.5075073900        1.3547750194        1.4144467692
 H         -7.1743050701        2.5772373089        0.3243099286
 H         -6.9508619596        0.2642004485       -0.6638988104
 H         -6.1502559296        1.5383509282       -1.6038423608
 O         -4.9653889295       -0.8960916908        0.1824202004
 C         -3.8665974994       -1.6903284006        0.4652091109
 O         -4.1140646794       -2.6738489603        1.1917798813
 O         -1.3612170395        0.1552638390       -1.3928787095
 C         -1.4369657893       -2.2106600603        0.2517457614
 C         -0.3820608495       -1.3819507698        0.9444446712
 C         -0.7382476698       -0.6816662494        2.0945584609
 C          0.1815274600        0.1113694210        2.7518609407
 C          1.4794499300        0.2216819210        2.2824905008
 C          1.8459363703       -0.4724440294        1.1385487512
 C          0.9177587105       -1.2727269898        0.4804640314
 H          1.2157361207       -1.8016086701       -0.4112995784
 N          3.1695443503       -0.4009465494        0.6613357113
 S          3.9319827601        1.1048095907        0.5924692008
 O          4.2482567399        1.5229899013        1.9351222007
 O          3.1524839401        2.0359096002       -0.1933402697
 C          5.4274413003        0.6593268006       -0.2681226688
 C          6.4806540803        0.1375309610        0.4584653016
 C          7.6331178104       -0.2414267291       -0.2111576881
 C          7.7123084206       -0.0942978196       -1.5880582482
 C          6.6475443706        0.4325858899       -2.3035092685
 C          5.4914605805        0.8126996400       -1.6399650689
 H          4.6426743105        1.2346231596       -2.1546016092
 H          6.7128375708        0.5482996394       -3.3734714886
 H          8.6104033307       -0.3894814397       -2.1073011279
 H          8.4643120504       -0.6489591987        0.3412627022
 H          6.3763921001        0.0498765015        1.5271441516
 H          3.2641417305       -0.8669075398       -0.2318654385
 H          2.2018251599        0.8472770714        2.7804778207
 H         -0.1119673702        0.6532754314        3.6388725804
 H         -1.7537463699       -0.7622287294        2.4599388008
 H         -1.7996535893       -2.9646189800        0.9650579217
 C         -0.9507773190       -2.9159434407       -0.9966401582
 C         -0.2064541589       -4.2119262606       -0.8864143475
 C         -1.6117585188       -4.1963439010       -1.4063972477
 H         -1.7765611286       -4.3772468915       -2.4579899877
 H         -2.4004423588       -4.5718428409       -0.7707506177
 H          0.5935773613       -4.4098123007       -1.5838107273
 H         -0.0371998989       -4.6069829801        0.1037679527
 H         -0.6707200790       -2.2257552810       -1.7843227684
