  62
        -98.94501191
 C         -2.5502894585       -0.1376400400        0.4374441166
 C         -2.3975219626        0.5403214990       -0.7956878471
 C         -2.1939146131        1.9925275849       -0.7071959626
 C         -2.1648092310        2.5826036963        0.5012728057
 C         -1.9614112938        4.0515404006        0.7347118623
 C         -0.4828801828        4.4011670803        0.9465345933
 C          0.4568017343        3.8296833341       -0.1155727018
 H          1.4572706697        4.2088105837        0.1066125769
 H          0.5050081680        2.7430385524       -0.0112547010
 C          0.0866663515        4.1901171449       -1.5608542756
 H         -0.5679990676        5.0627857997       -1.5707217108
 H          1.0001466110        4.4628568520       -2.0934249505
 C         -0.5653619001        3.0540359464       -2.3516509050
 H         -0.5365928529        3.3163184509       -3.4128378312
 H          0.0190106024        2.1393056506       -2.2199390584
 C         -2.0252870712        2.7452873182       -1.9963663331
 H         -2.6069825746        3.6696152238       -1.9851871916
 H         -2.4288532808        2.0927601685       -2.7762171815
 H         -0.1699645749        4.0125451990        1.9187331261
 H         -0.3904713280        5.4892654522        0.9688024352
 H         -2.3558078869        4.6026027668       -0.1171784312
 H         -2.5212668227        4.3337117804        1.6285708020
 O         -2.3095212605        1.8966201936        1.6654415865
 C         -2.4807748250        0.5220098169        1.6624521163
 O         -2.5705226295        0.0112183619        2.7998805045
 H         -0.1741725710       -0.9002218895        0.5094861845
 C         -0.3063108524       -1.7796370287       -0.1040678728
 C         -1.5780070545       -2.3150658159       -0.2602188707
 C         -1.7249021879       -3.4576654241       -1.0361533117
 C         -0.6232914759       -4.0335681832       -1.6460640117
 C          0.6374321018       -3.4855724275       -1.5027074624
 C          0.7940879448       -2.3379082142       -0.7312066543
 N          2.0514675388       -1.7227682242       -0.6165359639
 S          2.3498766340       -0.5934122007        0.5923069562
 O          2.1063090949       -1.1709997550        1.8973978178
 O          1.6421362753        0.6223834637        0.2826730179
 C          4.1000906092       -0.3523084924        0.3550405729
 C          4.5259027338        0.5648309220       -0.5867779520
 C          5.8863074412        0.7308185063       -0.7931508298
 C          6.7931477406       -0.0196765751       -0.0595927064
 C          6.3511898246       -0.9346459653        0.8842232026
 C          4.9920410894       -1.1054314037        1.0951669927
 H          4.6021131403       -1.7953517106        1.8262737229
 H          7.0583012051       -1.5137308367        1.4559263317
 H          7.8511994062        0.1119595451       -0.2219345904
 H          6.2332723374        1.4440200209       -1.5232741671
 H          3.7836050892        1.1304800104       -1.1257462668
 H          2.8292904631       -2.3484435039       -0.7693684796
 H          1.4920253801       -3.9299403835       -1.9890055914
 H         -0.7501738026       -4.9222395539       -2.2456365062
 H         -2.7014260165       -3.8951545562       -1.1653878892
 C         -2.7301896910       -1.6439062213        0.4496423573
 H         -2.6987432423       -1.9462167036        1.5080384021
 C         -4.0826139871       -2.0157499439       -0.1249347691
 C         -4.8263726632       -3.2096766489        0.3915142502
 C         -5.3019709559       -1.8286335437        0.7252740991
 H         -6.2051978450       -1.4639558464        0.2598557195
 H         -5.1493163235       -1.4612294601        1.7301115009
 H         -5.4088440226       -3.7948055584       -0.3041365426
 H         -4.3629080172       -3.7866959161        1.1776458152
 H         -4.1636558699       -1.7741475813       -1.1785309955
 O         -2.4407824827       -0.0362938267       -1.9144043450
