  62
        -98.94965103
 C         -1.6927643818       -1.2180504585        0.3376067086
 C         -1.3269645141       -0.1555874622       -0.5213620789
 C         -1.8780320414        1.1597287911       -0.1836920104
 C         -2.6437109965        1.3000341279        0.9132425351
 C         -3.2488975698        2.5843464203        1.4117859064
 C         -4.5710570808        2.9628717314        0.7296630787
 C         -4.4439377599        3.4562615602       -0.7121906736
 H         -5.4073664177        3.8900374419       -0.9872447142
 H         -3.7022946787        4.2544020347       -0.7561471925
 C         -4.0870532648        2.3615246025       -1.7271815912
 H         -4.2803981179        1.3807877547       -1.2866891457
 H         -4.7328309588        2.4533164984       -2.6032671134
 C         -2.6414675905        2.4042361573       -2.2221678475
 H         -2.4712533050        3.3289927280       -2.7776359302
 H         -2.4887240302        1.5656268031       -2.9057846893
 C         -1.5912121618        2.3041163216       -1.1079756224
 H         -0.6152355065        2.1241888164       -1.5656178586
 H         -1.5407254051        3.2379722778       -0.5479379000
 H         -5.2391932129        2.0991530990        0.7624871188
 H         -5.0265306382        3.7579502589        1.3245564399
 H         -3.4380506923        2.4434902312        2.4784340232
 H         -2.5278822981        3.3943844584        1.2951586684
 O         -2.9494141044        0.2585193541        1.7330151933
 C         -2.4833573983       -1.0190186588        1.4671758400
 O         -2.8354005470       -1.8805566118        2.3008637416
 H          0.4955514859       -1.1932816855        1.6259286082
 C          1.0415744862       -1.7601355323        0.8854888976
 C          0.3542861198       -2.5660158460       -0.0132924545
 C          1.0868929187       -3.2932234683       -0.9434584778
 C          2.4665267086       -3.1879009884       -0.9881352989
 C          3.1409925420       -2.3421220550       -0.1265550559
 C          2.4174220281       -1.6198930701        0.8151105743
 N          3.0496538609       -0.7264914251        1.7061184732
 S          2.6489213229        0.8964377314        1.5673923148
 O          3.4804309004        1.5698239034        2.5427666512
 O          1.2268021208        1.0709888737        1.7119033830
 C          3.1898220962        1.3453909481       -0.0729491794
 C          4.4101303927        1.9790723146       -0.2137199708
 C          4.8725645285        2.2732697216       -1.4858335895
 C          4.1146904847        1.9203878696       -2.5925262729
 C          2.8953691713        1.2807388250       -2.4336444908
 C          2.4230595749        0.9861604889       -1.1632073589
 H          1.4738981144        0.4921542778       -1.0213221072
 H          2.2992658964        1.0020927709       -3.2879264262
 H          4.4746085625        2.1453129069       -3.5841320083
 H          5.8200164896        2.7724973728       -1.6099891903
 H          4.9620326764        2.2355510759        0.6762239922
 H          4.0572660025       -0.8130104490        1.7188909975
 H          4.2142802877       -2.2379480232       -0.1797478856
 H          3.0218510891       -3.7575057293       -1.7174505422
 H          0.5758002635       -3.9382168630       -1.6394409919
 C         -1.1522703108       -2.6121418976        0.0766941486
 H         -1.4293677868       -3.2178470145        0.9523948427
 C         -1.8076025592       -3.2034078207       -1.1554056906
 C         -2.0409493557       -4.6801267498       -1.2575477443
 C         -3.1968069360       -3.7520638835       -1.0388235440
 H         -3.8884056696       -3.5846344935       -1.8508412673
 H         -3.6570687909       -3.7243227339       -0.0614686520
 H         -1.9432153752       -5.1526997541       -2.2232978762
 H         -1.7244950523       -5.2955571066       -0.4289758936
 H         -1.5591635195       -2.6580774343       -2.0587810724
 O         -0.5716818273       -0.2994742066       -1.5189729457
