  62
        -98.94478451
 C         -2.1270765101       -0.9112135781       -0.0686833982
 C         -2.8887169244       -0.4506206202        1.0382082547
 C         -3.5970067833        0.8225267113        0.8629958173
 C         -3.4672730105        1.4888579247       -0.2983393089
 C         -4.1570454088        2.7794523224       -0.6306591228
 C         -5.5094560193        2.5300793307       -1.3128864631
 C         -6.3912919651        1.5172312725       -0.5825614069
 H         -7.3298679051        1.4450081327       -1.1361519809
 H         -5.9154784971        0.5349151250       -0.6262740283
 C         -6.6864331901        1.8721684389        0.8814437696
 H         -7.7495453381        1.7125211168        1.0728346544
 H         -6.4811878122        2.9290723721        1.0549849478
 C         -5.9186820610        1.0327196657        1.9042236483
 H         -6.0443531205       -0.0284058426        1.6753141173
 H         -6.3592532678        1.2099089073        2.8888348686
 C         -4.4174492951        1.3268934395        2.0168589105
 H         -4.2614532764        2.3983546128        2.1587872415
 H         -4.0410786665        0.8050607719        2.9014665763
 H         -6.0353682446        3.4831190860       -1.3935255582
 H         -5.3236571133        2.1578240458       -2.3230490738
 H         -4.2988972847        3.3533223232        0.2832272019
 H         -3.5153682387        3.3462109387       -1.3077517300
 O         -2.7170499815        1.0291559050       -1.3299477115
 C         -2.0295527192       -0.1730474174       -1.2480943480
 O         -1.3951619442       -0.4483400571       -2.2873972287
 H          0.5610887102       -1.2933236658       -1.5478863590
 C          0.9261345642       -1.4203549202       -0.5396510022
 C          0.0705862244       -1.9024638003        0.4412255706
 C          0.5495728936       -2.0175231591        1.7413953530
 C          1.8498603789       -1.6575475600        2.0487857702
 C          2.6943527310       -1.1643477074        1.0699974569
 C          2.2208468233       -1.0356731335       -0.2287730618
 N          3.0635693665       -0.4898953391       -1.2234102885
 S          3.4887033793        1.1208003133       -0.9672434172
 O          2.4720545974        1.8239015356       -0.2164431677
 O          3.8075856208        1.6515266606       -2.2750449375
 C          4.9852232624        1.0076946892       -0.0083731621
 C          5.0392267217        1.5670394627        1.2531505708
 C          6.2152790408        1.4665666960        1.9803712401
 C          7.3098610249        0.8125824890        1.4356746039
 C          7.2397568695        0.2578722323        0.1662044874
 C          6.0676059659        0.3555174256       -0.5663881804
 H          5.9704363370       -0.0562987787       -1.5569363559
 H          8.0930769195       -0.2497433139       -0.2537573537
 H          8.2230495869        0.7350017311        2.0042623990
 H          6.2712699024        1.8971466434        2.9672628920
 H          4.1600677365        2.0601249212        1.6363315358
 H          2.6652371368       -0.5750729725       -2.1493566345
 H          3.7048469250       -0.8710969056        1.3038930375
 H          2.2073368019       -1.7543700733        3.0625187150
 H         -0.1158079601       -2.3702136563        2.5160896587
 C         -1.3708261083       -2.2179057445        0.1212749731
 H         -1.8179288980       -2.6804949801        1.0112210481
 C         -1.5108489392       -3.1791121764       -1.0408453646
 C         -1.2064082834       -4.6297238026       -0.8200964633
 C         -2.6218906905       -4.1841937931       -1.0281891712
 H         -3.1088233554       -4.4235199278       -1.9616654175
 H         -3.2872825177       -4.1833219872       -0.1771877593
 H         -0.9117059673       -4.9311779232        0.1736176204
 H         -0.7184882866       -5.1792175720       -1.6102629252
 H         -1.2479593351       -2.7477112437       -1.9977107206
 O         -2.9727948219       -1.0825890301        2.1245859767
