  62
        -98.94413722
 C          1.9690649601       -0.7562198119       -0.3566644943
 C          2.3719231698        0.4481932461        0.2692430134
 C          3.7387143939        0.8946649224       -0.0324248726
 C          4.5027724640        0.1905427410       -0.8867361983
 C          5.9034185177        0.5347199522       -1.3152573283
 C          6.9900039930        0.0612602438       -0.3401468797
 C          7.0783144006        0.8490538714        0.9675067231
 H          8.0112167179        0.5578623027        1.4543911115
 H          7.1467605089        1.9143321772        0.7445995229
 C          5.9159001474        0.5974386720        1.9379898810
 H          6.3098492074        0.4407184726        2.9447120114
 H          5.3946216790       -0.3189653081        1.6520098754
 C          4.9011322865        1.7377725635        2.0217223078
 H          5.3829321348        2.6278588814        2.4325437867
 H          4.1056071590        1.4386493161        2.7089044586
 C          4.2541094107        2.1083054875        0.6806357921
 H          3.4019066035        2.7631619031        0.8791440810
 H          4.9672980983        2.6440649815        0.0544645640
 H          7.9493405641        0.1461189336       -0.8558185144
 H          6.8243992642       -0.9955758351       -0.1186204411
 H          5.9879177407        1.6120270955       -1.4612133799
 H          6.0640717643        0.0402932708       -2.2757474532
 O          4.0638119436       -0.9425111309       -1.4965520215
 C          2.8002779123       -1.4470326931       -1.2409194540
 O          2.5337991482       -2.4991083004       -1.8557928741
 O          1.6393818983        1.1199643348        1.0414734826
 C          0.5813328617       -1.3303005189       -0.1215390410
 C         -0.4375791047       -0.3879407301       -0.7132271604
 C         -0.5504753524       -0.3073073822       -2.0987257756
 C         -1.4607460406        0.5500749745       -2.6870246936
 C         -2.2775856035        1.3493508144       -1.9051081393
 C         -2.1663401441        1.2807511883       -0.5240730457
 C         -1.2577953409        0.4117172297        0.0659399899
 H         -1.1792526715        0.3777598973        1.1409147639
 N         -3.0152103966        2.0785206034        0.2757212125
 S         -4.6435143765        1.6935947264        0.1717675411
 O         -5.1477310760        2.1182942651       -1.1089578302
 O         -5.2648335112        2.2873378661        1.3336864928
 C         -4.6724453541       -0.0862706841        0.2854684084
 C         -4.6311285424       -0.6668362511        1.5375298830
 C         -4.5589646471       -2.0466964481        1.6347927544
 C         -4.5153634529       -2.8175484503        0.4830915317
 C         -4.5552989420       -2.2192349351       -0.7667106794
 C         -4.6336107625       -0.8396133556       -0.8703724152
 H         -4.6695761140       -0.3372084687       -1.8228908910
 H         -4.5203808831       -2.8211012448       -1.6606096393
 H         -4.4507146228       -3.8915942934        0.5607618242
 H         -4.5309656874       -2.5167425367        2.6047057680
 H         -4.6707294911       -0.0318954832        2.4082043239
 H         -2.7323504484        2.0996590049        1.2456200762
 H         -3.0029683024        2.0165053304       -2.3422309595
 H         -1.5364912531        0.5985115521       -3.7628291826
 H          0.0923746150       -0.9280503148       -2.7080313279
 H          0.5438687480       -2.2669804654       -0.6938659794
 C          0.3469835771       -1.6420189355        1.3416481739
 C         -0.8168339880       -2.5026182452        1.7305625402
 C          0.5797517149       -3.0349806818        1.8400619225
 H          1.0077957846       -3.1650136012        2.8228064643
 H          0.9051153555       -3.7738409149        1.1223852149
 H         -1.3500203173       -2.2694550889        2.6395104750
 H         -1.4455325907       -2.8761677812        0.9365596979
 H          0.6212239384       -0.8269563207        2.0004361247
