  62
        -98.94430929
 C         -2.0634491188       -1.3907687912        0.0397195006
 C         -2.3574047154       -0.4378857838       -0.9654613193
 C         -3.7058135824        0.1485597475       -0.9235385624
 C         -4.5709669589       -0.2349860034        0.0317119855
 C         -5.9474419901        0.3302056081        0.2246457060
 C         -5.9274844536        1.5221047497        1.1920294502
 C         -4.8573859408        2.5646965156        0.8676026707
 H         -4.9584775702        3.3719193442        1.5963757708
 H         -3.8696999160        2.1216638911        1.0165247114
 C         -4.9442483483        3.1440722993       -0.5513548033
 H         -5.9331096272        2.9529689469       -0.9697897669
 H         -4.8200928844        4.2276347239       -0.4949015335
 C         -3.8769724859        2.6236437825       -1.5159223407
 H         -3.8926149897        3.2519569414       -2.4106637627
 H         -2.8891862583        2.7299632842       -1.0595576090
 C         -4.0445372079        1.1691844111       -1.9737887999
 H         -3.3450249074        0.9979112562       -2.7971378770
 H         -5.0586136513        1.0159670241       -2.3478931937
 H         -6.9119952886        1.9932556108        1.1798098310
 H         -5.7429332229        1.1463370148        2.2011035015
 H         -6.5852934315       -0.4520162763        0.6396134384
 H         -6.3475297215        0.6380007668       -0.7394468652
 O         -4.2621237438       -1.1621321867        0.9723610048
 C         -3.0115859198       -1.7519678776        1.0042621288
 O         -2.8644853744       -2.5817444552        1.9234534907
 O         -1.5529257986       -0.0724483083       -1.8656773416
 C         -0.7219956101       -2.0991204790        0.1601194043
 C          0.3134445229       -1.2155688355        0.8146390895
 C          0.9090864746       -1.5833064118        2.0152591081
 C          1.8693783748       -0.7774953557        2.6025925023
 C          2.2543127901        0.4093316426        2.0057578314
 C          1.6626573508        0.7856598972        0.8064720815
 C          0.7080764071       -0.0281946694        0.2144935838
 H          0.2503212534        0.2707216214       -0.7167269158
 N          2.0495712833        1.9879914287        0.1873603931
 S          3.6933971775        2.2536325696        0.0159753145
 O          4.2282219655        2.7757514730        1.2493390525
 O          3.8287624497        3.1102611790       -1.1410845383
 C          4.3862975041        0.6412781339       -0.3068075701
 C          5.2953915581        0.0915990604        0.5735354142
 C          5.7845562353       -1.1807756214        0.3240301574
 C          5.3538771921       -1.8792126948       -0.7929497664
 C          4.4424380717       -1.3113050929       -1.6700070302
 C          3.9513237164       -0.0393937497       -1.4268572176
 H          3.2432787571        0.4296184647       -2.0914832684
 H          4.1085655321       -1.8551843983       -2.5390436954
 H          5.7298054938       -2.8720698236       -0.9830754304
 H          6.4950366326       -1.6239442294        1.0029979085
 H          5.5992728815        0.6681978281        1.4319452725
 H          1.5582843898        2.1689230784       -0.6761070541
 H          2.9948430014        1.0535471143        2.4516904080
 H          2.3216486636       -1.0753080990        3.5361183691
 H          0.6041873313       -2.5018516147        2.4950516000
 H         -0.9006468111       -2.9528997588        0.8268278066
 C         -0.2086805360       -2.6281507745       -1.1663991091
 C          0.8116969112       -3.7244834085       -1.1636256565
 C         -0.5930521455       -4.0083863515       -1.6025029031
 H         -0.7843394580       -4.1825833649       -2.6507896229
 H         -1.2290620958       -4.5817049688       -0.9434457632
 H          1.5888880452       -3.7057198673       -1.9116515948
 H          1.1310639254       -4.1083242713       -0.2067697124
 H         -0.1329953174       -1.8682851124       -1.9324548931
