  62
        -98.93788588
 C         -1.4551048897       -0.8259400443       -0.0954560835
 C         -2.7250676661       -1.4470077519       -0.0984155860
 C         -3.8543635171       -0.6104636293        0.3357437953
 C         -3.6199876569        0.6584235177        0.7177818423
 C         -4.6718287004        1.6571130068        1.1099459589
 C         -5.3725688324        2.2056667360       -0.1494206715
 C         -6.8521184260        1.8367996802       -0.2586067379
 H         -7.4249842451        2.4563317999        0.4346860449
 H         -7.1781694094        2.0875335067       -1.2703111355
 C         -7.1979663852        0.3722542400        0.0275496765
 H         -7.2301093757        0.2062341974        1.1054218077
 H         -8.2121198079        0.2068607983       -0.3425088091
 C         -6.2679853087       -0.6729268965       -0.6021315158
 H         -5.7695018067       -0.2649283863       -1.4816827088
 H         -6.8805803751       -1.5096985833       -0.9442162067
 C         -5.2132768736       -1.2541593824        0.3581177044
 H         -5.6057894157       -1.2461071058        1.3789234809
 H         -5.0316648377       -2.2981454873        0.0854171010
 H         -5.2899422571        3.2933936456       -0.1676389261
 H         -4.8387915757        1.8351047132       -1.0269880237
 H         -5.3931968097        1.1894766260        1.7763753716
 H         -4.1708780103        2.4625107035        1.6471417086
 O         -2.3811450273        1.2152538928        0.7192141779
 C         -1.2659449328        0.4938849642        0.3153511909
 O         -0.1958774172        1.1246180135        0.3698748487
 O         -2.9054964918       -2.6476078524       -0.4408325276
 C         -0.2411961170       -1.6181128587       -0.5441618863
 C          0.8084877483       -1.6147527765        0.5386220474
 C          0.4362874925       -1.9229059395        1.8451176946
 C          1.3638331147       -1.9000430103        2.8676680571
 C          2.6811550631       -1.5586557804        2.6138927425
 C          3.0666353842       -1.2672403900        1.3116784969
 C          2.1358560401       -1.3122767069        0.2820217051
 H          2.4683157787       -1.1083337580       -0.7208697961
 N          4.3954936782       -0.9375912314        1.0195169820
 S          4.7877607709        0.0439597282       -0.2703377658
 O          4.6992574102       -0.7001718404       -1.5024000521
 O          6.1049986924        0.5454545488        0.0617077778
 C          3.6169936625        1.3887600653       -0.2799998473
 C          2.9288470727        1.6780909756       -1.4395759502
 C          2.0394684001        2.7392941735       -1.4453932470
 C          1.8520012873        3.4875407432       -0.2953424390
 C          2.5530047844        3.1864492005        0.8609443679
 C          3.4460746890        2.1286461210        0.8719634622
 H          4.0071987777        1.8743609577        1.7567801619
 H          2.3985411496        3.7682601551        1.7554974395
 H          1.1489244298        4.3053361312       -0.2986818278
 H          1.4871652332        2.9717726425       -2.3424426330
 H          3.0976951157        1.0648675323       -2.3111731642
 H          4.9916898871       -0.7822929751        1.8180849106
 H          3.4040409186       -1.5237189869        3.4143803688
 H          1.0583385796       -2.1386352159        3.8754028821
 H         -0.5961228823       -2.1732486012        2.0484571130
 H         -0.5946296062       -2.6502096153       -0.6863563913
 C          0.2653217844       -1.0856899701       -1.8683708891
 C          0.9981438979       -1.9852353075       -2.8168322145
 C         -0.3924991355       -1.5290535634       -3.1391184211
 H         -0.5299482301       -0.8058983251       -3.9289914984
 H         -1.1971851010       -2.2451880659       -3.0577797933
 H          1.8241528549       -1.5795470278       -3.3822022441
 H          1.1384305149       -3.0140451724       -2.5210325677
 H          0.5783315255       -0.0491177359       -1.8013909868
