  62
        -98.93820152
 C         -2.0800264095       -1.0801358903        0.2865990103
 C         -2.1305582899       -0.1529016802       -0.7837941996
 C         -2.3154561803        1.2571980397       -0.3981992994
 C         -2.3905028203        1.5912310095        0.9013138106
 C         -2.6103323708        2.9816885394        1.4223901608
 C         -4.1053584208        3.2846151389        1.5957960109
 C         -4.9521274708        2.9333207588        0.3725703510
 H         -4.9374736005        1.8504920988        0.2297841209
 H         -5.9826462809        3.2154696484        0.5982414811
 C         -4.5061051712        3.6198591590       -0.9258150190
 H         -5.3889086613        4.0053363588       -1.4400353089
 H         -3.8669265814        4.4722602592       -0.6933918390
 C         -3.7823532409        2.7010383794       -1.9119755291
 H         -3.7017771712        3.2237483895       -2.8687485291
 H         -4.3783598507        1.8006025892       -2.0799876892
 C         -2.3666815408        2.2704565698       -1.5072057393
 H         -1.9005881607        1.7881705900       -2.3719639094
 H         -1.7699298310        3.1486065100       -1.2497311293
 H         -4.4770943506        2.7093518187        2.4467455009
 H         -4.2175870712        4.3455270889        1.8263979911
 H         -2.1134722607        3.0643284295        2.3906304108
 H         -2.1590378210        3.6941544796        0.7342924208
 O         -2.3254072600        0.6765267895        1.9025230805
 C         -2.1475881296       -0.6649404204        1.6191728204
 O         -2.0835522492       -1.3963888505        2.6294781803
 H          0.3102967104       -1.0846829894       -0.7092010599
 C          0.6145845307       -1.9284136194       -0.1073583700
 C         -0.3350275190       -2.8132455597        0.3821144800
 C          0.0910949314       -3.8927281797        1.1466394999
 C          1.4353830915       -4.0709674293        1.4227360898
 C          2.3742366812       -3.1626974389        0.9682555498
 C          1.9570350808       -2.0804515190        0.2015052999
 N          2.8701969904       -1.1244374486       -0.2729052101
 S          2.3517367799        0.4878111612       -0.2810093799
 O          1.5559119499        0.7584365808        0.8954496202
 O          1.7437658997        0.7725203011       -1.5556574198
 C          3.9218812896        1.3285370017       -0.1700556999
 C          4.4239592996        1.6489947117        1.0773698701
 C          5.6613870295        2.2673448421        1.1639176100
 C          6.3735007393        2.5504513325        0.0078999100
 C          5.8561179993        2.2243133124       -1.2369226900
 C          4.6190111895        1.6063263320       -1.3305883199
 H          4.1715194095        1.3407862420       -2.2741819399
 H          6.4105974091        2.4490742027       -2.1336013200
 H          7.3364018691        3.0310650128        0.0779676000
 H          6.0637234894        2.5252039622        2.1302753300
 H          3.8290960798        1.4188813615        1.9470303001
 H          3.7902369605       -1.2209599484        0.1353729798
 H          3.4193634113       -3.2840037486        1.2092105397
 H          1.7531919718       -4.9125490492        2.0192468896
 H         -0.6410637383       -4.5782490900        1.5474306799
 C         -1.7995203791       -2.5657944602        0.1143797602
 H         -2.3657036988       -3.0728628704        0.9137367602
 C         -2.2658567690       -3.1464820402       -1.2108454998
 C         -1.3307484590       -3.4609499598       -2.3354277400
 C         -1.9594233186       -4.5742041001       -1.5558098600
 H         -2.7294610084       -5.1650631603       -2.0279900800
 H         -1.3262983783       -5.1276074999       -0.8792814501
 H         -1.6728766691       -3.2623669098       -3.3393726999
 H         -0.2802356090       -3.2600025395       -2.1903253200
 H         -3.2461995891       -2.7770128805       -1.4913535197
 O         -2.0367084399       -0.4580737101       -2.0005476296
