  62
        -98.93771578
 C          2.2566339792       -0.7346130243        0.1020376393
 C          3.5781823399       -1.2066331235        0.3114562811
 C          4.6469252626       -0.4529210751       -0.3527344852
 C          4.3324137678        0.5779036819       -1.1572593211
 C          5.3059690923        1.4370189435       -1.9175059002
 C          5.9011483994        2.5837042308       -1.0886883759
 C          6.9224579928        2.1609689475       -0.0318129456
 H          7.6863437211        1.5364893368       -0.4959692999
 H          7.4137451358        3.0703435972        0.3198573648
 C          6.3196911548        1.4285080859        1.1752484739
 H          6.7361969643        1.8407927079        2.0970721541
 H          5.2416046259        1.6045935801        1.2066228653
 C          6.5773419006       -0.0784186675        1.1959966588
 H          7.6485884685       -0.2651251836        1.2974024600
 H          6.0778119356       -0.4994178537        2.0725058675
 C          6.0661672571       -0.8232523150       -0.0443525874
 H          6.7084787335       -0.6158944952       -0.8997355524
 H          6.0918621307       -1.8955771692        0.1637343603
 H          6.3923037449        3.2677087057       -1.7846192107
 H          5.0840557693        3.1281694015       -0.6093018314
 H          6.1103006310        0.8171040308       -2.3143752846
 H          4.7519821163        1.8678366306       -2.7542690422
 O          3.0475703908        0.9524649734       -1.3944531117
 C          1.9790868393        0.3260840640       -0.7611770987
 O          0.8694964099        0.8010519208       -1.0687221656
 O          3.8499165142       -2.2140421710        1.0166987523
 C          1.1340772656       -1.4574132348        0.8235434683
 C         -0.0267285858       -1.7029436223       -0.1065064121
 C          0.1742956661       -2.5077107054       -1.2250585560
 C         -0.8525983856       -2.7437057835       -2.1174434666
 C         -2.1024109228       -2.1878195573       -1.9099667061
 C         -2.3183356123       -1.3943348927       -0.7892412900
 C         -1.2840536910       -1.1603127098        0.1060252309
 H         -1.4680109080       -0.5186562826        0.9503046802
 N         -3.6000705873       -0.8729086431       -0.5380707030
 S         -3.8246505517        0.5822077544        0.2816432890
 O         -3.1881472418        1.6778183413       -0.4140774161
 O         -3.4680298339        0.4019152123        1.6664586749
 C         -5.5983397349        0.7197110029        0.1399778682
 C         -6.3886159450       -0.0510215311        0.9717520924
 C         -7.7666761740        0.0309681182        0.8522687470
 C         -8.3294061245        0.8776464474       -0.0914552387
 C         -7.5240831982        1.6468975395       -0.9175173026
 C         -6.1447398253        1.5682359224       -0.8038448576
 H         -5.4787913738        2.1529210483       -1.4182501999
 H         -7.9638065984        2.3069061300       -1.6478697560
 H         -9.4023352325        0.9406819562       -0.1817561726
 H         -8.3962298687       -0.5635031284        1.4945018647
 H         -5.9068369181       -0.6870988750        1.6956736747
 H         -4.1963360530       -0.9096144877       -1.3539542228
 H         -2.9036924022       -2.3655398600       -2.6111848466
 H         -0.6791807640       -3.3608309777       -2.9863972833
 H          1.1552076561       -2.9321845446       -1.3927561316
 H          1.5666991369       -2.4365974057        1.0914894674
 C          0.7204282638       -0.7946831135        2.1292467374
 C          1.6908930273        0.0120482390        2.9373019996
 C          0.5439323734        0.6881450315        2.2507780032
 H         -0.2776495656        1.0580487261        2.8477598657
 H          0.7418650416        1.2884002680        1.3756712544
 H          1.6654164307       -0.0816443222        4.0124754362
 H          2.6827931969        0.1551004627        2.5336540721
 H          0.0238204441       -1.4091540628        2.6922524283
