  62
        -98.94576764
 C          2.3133883432        0.9659613529        0.2733272493
 C          2.1252025069        0.0755575354       -0.8115916297
 C          2.5976056553       -1.3004595160       -0.5977576849
 C          3.1258649980       -1.6397876004        0.5922715562
 C          3.5803895338       -3.0202226422        0.9666622286
 C          2.4402725316       -3.8282163017        1.6028873512
 C          1.1388507016       -3.8017631454        0.8004239443
 H          0.4215579364       -4.4340614103        1.3283335791
 H          0.7363169631       -2.7858812825        0.8036935277
 C          1.2814381491       -4.2831207500       -0.6501927548
 H          2.2082744694       -4.8466204522       -0.7629420955
 H          0.4607173187       -4.9661182221       -0.8777732606
 C          1.2376517497       -3.1643765486       -1.6922691074
 H          0.3625293413       -2.5336574950       -1.5193723974
 H          1.1259368944       -3.6222834353       -2.6782775774
 C          2.4740371560       -2.2594315422       -1.7484541130
 H          2.3881312240       -1.6386334694       -2.6448930137
 H          3.3757328246       -2.8690122585       -1.8370828574
 H          2.2398311483       -3.4204759046        2.5966321927
 H          2.7752056191       -4.8602632861        1.7221992910
 H          3.9486770328       -3.5291651637        0.0780456860
 H          4.3955673536       -2.9306687447        1.6867266449
 O          3.2578847432       -0.7640490459        1.6224022343
 C          2.8610929374        0.5565119087        1.4883572625
 O          3.0357847553        1.2531182482        2.5100554627
 O          1.5950429247        0.4089078789       -1.9021545285
 C          1.8885364006        2.4180973329        0.1436302058
 C          0.3995830312        2.4997285756       -0.0936197845
 C         -0.1769222931        3.2278756927       -1.1250736586
 C         -1.5533734209        3.2619017256       -1.2721860657
 C         -2.3809530661        2.5840068168       -0.3967175257
 C         -1.8147062279        1.8505405788        0.6393687980
 C         -0.4353767226        1.8134112803        0.7804364316
 H          0.0075858854        1.2474131612        1.5913497546
 N         -2.6340094602        1.1784260934        1.5617571710
 S         -3.9572507822        0.2861556989        1.0685154587
 O         -4.9499861810        1.1709401463        0.5132687098
 O         -4.3503349808       -0.4632875137        2.2396583954
 C         -3.3617895593       -0.8276142058       -0.1888153618
 C         -2.8212285863       -2.0336043419        0.2121932199
 C         -2.3407376014       -2.9065342259       -0.7493810180
 C         -2.3960343615       -2.5542540561       -2.0896638591
 C         -2.9341558252       -1.3368337825       -2.4755333105
 C         -3.4253609290       -0.4630095542       -1.5184160528
 H         -3.8646042029        0.4841838011       -1.7832418475
 H         -2.9727340731       -1.0646436465       -3.5179026336
 H         -2.0175357305       -3.2337107224       -2.8369011609
 H         -1.9218039580       -3.8540795292       -0.4514086885
 H         -2.8048894210       -2.2736330399        1.2633722251
 H         -2.1224888779        0.6873221499        2.2795908746
 H         -3.4539898301        2.6195798826       -0.4907592609
 H         -1.9891999309        3.8317277741       -2.0787407946
 H          0.4493668582        3.7672448721       -1.8158871428
 H          2.0979546484        2.8831269986        1.1183107244
 C          2.7162560437        3.1158082433       -0.9148359071
 C          2.9547845485        4.5924833471       -0.8301842549
 C          4.0716964399        3.6351631176       -0.5444887898
 H          4.8727872705        3.5453241748       -1.2627274940
 H          4.3895085295        3.5073510387        0.4804353436
 H          2.9930255466        5.1632632136       -1.7456643867
 H          2.5174963659        5.1229265442        0.0022535373
 H          2.6043402492        2.6684786204       -1.8954060718
