  62
        -98.93706959
 C         -2.6319272705       -0.0979307421        0.4763342727
 C         -2.1301815710        0.4559867742       -0.7237212731
 C         -1.7915288537        1.8930680085       -0.7063745993
 C         -1.9975797796        2.5948964451        0.4233540400
 C         -1.7562246400        4.0594701302        0.6852080622
 C         -0.2750881445        4.4069249244        0.8809618239
 C          0.6622337225        3.8277680164       -0.1744250210
 H          1.6814509807        4.1191583838        0.0948689691
 H          0.6254741559        2.7372677833       -0.1377120756
 C          0.4073149861        4.3055955424       -1.6025756972
 H          0.4392498125        5.3974157879       -1.6276043224
 H          1.2335465374        3.9330897286       -2.2136917593
 C         -0.8992380371        3.8372247901       -2.2508935364
 H         -0.7925077360        3.9735359539       -3.3309262680
 H         -1.7420099762        4.4519684061       -1.9442069873
 C         -1.2245875987        2.3648301958       -2.0222783987
 H         -1.9441969283        2.0380009750       -2.7824576460
 H         -0.3259661694        1.7594665611       -2.1983163318
 H         -0.1801086001        5.4947010861        0.8978191656
 H          0.0399541665        4.0235312017        1.8546127686
 H         -2.1846300670        4.6569076730       -0.1142111510
 H         -2.2935996779        4.2998089795        1.6057615498
 O         -2.4862127989        2.0141631569        1.5593330274
 C         -2.7788851047        0.6672334489        1.6298500465
 O         -3.1588784036        0.2751281683        2.7538437702
 H         -0.4620959316       -1.1239820314        1.3631760598
 C         -0.4905150352       -1.9472860795        0.6581471799
 C         -1.7125128488       -2.3544225345        0.1380385714
 C         -1.7226618681       -3.4131423805       -0.7604514599
 C         -0.5379330205       -4.0070274151       -1.1626480759
 C          0.6800485531       -3.5560283282       -0.6862914832
 C          0.6945562251       -2.5243010236        0.2391533037
 N          1.9471987628       -2.0030857388        0.6869327235
 S          2.3393726824       -0.6372425516       -0.2431146099
 O          1.5725832007        0.5063929820        0.2042964883
 O          2.2275969692       -0.9956810252       -1.6334219230
 C          4.0576039392       -0.4201527912        0.1832650636
 C          4.4393694571        0.6109622397        1.0185617261
 C          5.7767872091        0.7342234389        1.3630059533
 C          6.7022507268       -0.1741153095        0.8727574723
 C          6.3028774039       -1.2053440695        0.0351724189
 C          4.9683383422       -1.3323438086       -0.3140968586
 H          4.6107142919       -2.1112231262       -0.9666225601
 H          7.0257462338       -1.9090902832       -0.3448017651
 H          7.7416032694       -0.0767372205        1.1439519453
 H          6.0896162777        1.5362787655        2.0120654638
 H          3.6850240043        1.2956441271        1.3725349804
 H          1.8787888464       -1.6812730870        1.6454647072
 H          1.6116132630       -3.9768445569       -1.0268823420
 H         -0.5641998581       -4.8165535823       -1.8761536304
 H         -2.6593845484       -3.7571852127       -1.1682894021
 C         -2.9423785714       -1.5832914346        0.5515888784
 H         -3.1558228222       -1.7990884704        1.6089985410
 C         -4.1680738168       -1.9116538064       -0.2743467949
 C         -5.0475739534       -3.0648469047        0.1030481356
 C         -5.5233758321       -1.6595304407        0.3122058817
 H         -6.2995792054       -1.2738944067       -0.3313709711
 H         -5.5603901031       -1.2729639006        1.3204613383
 H         -5.5025209262       -3.6453097239       -0.6852220421
 H         -4.7716510136       -3.6400253767        0.9737877216
 H         -4.0275583725       -1.6923470587       -1.3267052644
 O         -1.9755995818       -0.2170842507       -1.7774669475
