  62
        -98.93644136
 C         -2.3692521229       -1.2911055736       -0.0862625120
 C         -3.1187756874       -0.5423229429        0.8504825691
 C         -3.9549635290        0.5313592640        0.2977023284
 C         -3.9697804471        0.7449401097       -1.0306580499
 C         -4.8041005612        1.7577794440       -1.7697141578
 C         -4.4869868310        3.2395419677       -1.4893826678
 C         -5.3526076002        3.8758830630       -0.3947903376
 H         -5.6125713474        4.8916742849       -0.6993073862
 H         -6.2890808726        3.3217271740       -0.3212888846
 C         -4.7090881696        3.9775273611        0.9915446087
 H         -5.4983759373        4.2042767963        1.7114582673
 H         -4.0073906252        4.8148755567        0.9992980558
 C         -3.9480672273        2.7396064184        1.4666414073
 H         -2.9898535458        2.6757193676        0.9445502814
 H         -3.7127370916        2.8686653873        2.5252569802
 C         -4.6963302040        1.4071605106        1.2656031293
 H         -4.7428860919        0.8605807993        2.2097424650
 H         -5.7136996670        1.5855515233        0.9209112883
 H         -3.4291653849        3.3467081207       -1.2503200234
 H         -4.6638177419        3.7813148444       -2.4198113243
 H         -5.8578369320        1.5665438284       -1.5548381085
 H         -4.6367048098        1.5525406473       -2.8289248335
 O         -3.2249928444        0.0061361456       -1.8975526112
 C         -2.3948533967       -1.0122927788       -1.4530091220
 O         -1.7517791691       -1.5802131747       -2.3545117738
 O         -3.0907662438       -0.7602924266        2.0929669899
 C         -1.4717079076       -2.4085195073        0.4126294675
 C         -0.0292502180       -2.0977737692        0.0938532148
 C          0.8458022858       -3.0135107236       -0.4743850586
 C          2.1591801433       -2.6595976102       -0.7330488845
 C          2.6287644783       -1.3951258118       -0.4307577731
 C          1.7667983343       -0.4756499068        0.1534087699
 C          0.4537341569       -0.8345495654        0.4146987718
 H         -0.2167711282       -0.1170608805        0.8730229613
 N          2.2290631871        0.8165674397        0.4575212146
 S          3.6653065472        0.9722357948        1.3130955069
 O          3.8948029997       -0.1647142282        2.1740457130
 O          3.5781619301        2.2625344799        1.9616536546
 C          4.9132807194        1.0431911081        0.0456884852
 C          4.7825454983        1.9994946647       -0.9421416718
 C          5.7488398996        2.0746567388       -1.9323822628
 C          6.8249371617        1.1996056430       -1.9161818647
 C          6.9438196141        0.2477945795       -0.9151502414
 C          5.9797995145        0.1663288579        0.0777826465
 H          6.0271888667       -0.5611311199        0.8723988689
 H          7.7813493770       -0.4310021473       -0.9042750162
 H          7.5751984278        1.2603934551       -2.6886411768
 H          5.6593613328        2.8133257429       -2.7126248424
 H          3.9331740249        2.6617505873       -0.9170156291
 H          1.5186991624        1.4207361020        0.8443744407
 H          3.6486320698       -1.1151748697       -0.6376553853
 H          2.8261381271       -3.3796016206       -1.1820231494
 H          0.4991866970       -4.0034931982       -0.7204433048
 H         -1.5828951220       -2.4047363121        1.5077611214
 C         -1.9400511776       -3.7465719439       -0.1182988852
 C         -1.6887285000       -4.9989624216        0.6655471534
 C         -3.0754791944       -4.4395144870        0.5714562975
 H         -3.8043863195       -4.9601642998       -0.0311752159
 H         -3.4946317828       -3.9573974871        1.4427585799
 H         -1.4673662427       -5.9084914349        0.1278881258
 H         -1.1668944991       -4.9037073036        1.6058563999
 H         -1.9043070378       -3.8003921556       -1.2003980815
