  62
        -98.93787533
 C         -1.9378796949       -1.3751597351        0.1100113577
 C         -2.2448980982       -0.3771373561       -0.8446084439
 C         -3.6258786049        0.1397694218       -0.8322596366
 C         -4.5108483017       -0.3383898313        0.0578625035
 C         -5.9679681797        0.0140595109        0.2219802717
 C         -6.3556835925        1.4964092607        0.1324676317
 C         -5.2991415196        2.4776090352        0.6608929872
 H         -5.7735980166        3.1648983051        1.3638779708
 H         -4.5247825293        1.9367834681        1.2079907211
 C         -4.6521390700        3.3130227464       -0.4465659133
 H         -5.4313843464        3.6436352129       -1.1368454032
 H         -4.2111239206        4.2073814191        0.0004909423
 C         -3.5483633958        2.6116356925       -1.2370502503
 H         -2.6680569271        2.4785594307       -0.6017618401
 H         -3.2534559255        3.2696668776       -2.0582377725
 C         -3.9210500147        1.2364011011       -1.8152845877
 H         -3.2791615806        1.0500126157       -2.6804344665
 H         -4.9575338683        1.2148556657       -2.1424052116
 H         -7.2789845873        1.6149730388        0.7020497797
 H         -6.5906027094        1.7509514361       -0.9001444335
 H         -6.5393960794       -0.5500926060       -0.5209723113
 H         -6.2442595554       -0.3772377596        1.2040940925
 O         -4.1743336420       -1.2987419065        0.9637140831
 C         -2.9009205650       -1.8318510904        1.0157282774
 O         -2.7489158989       -2.7010781034        1.8970815104
 O         -1.4275452602        0.0771616326       -1.6903124347
 C         -0.5701210586       -2.0293999993        0.2356382388
 C          0.4098936555       -1.1383252308        0.9604794000
 C          0.9671140912       -1.5265498478        2.1729492804
 C          1.8906082732       -0.7203728266        2.8163350398
 C          2.2773352161        0.4872767766        2.2636502202
 C          1.7195520346        0.8861753298        1.0560415798
 C          0.7999307111        0.0743200735        0.4098104491
 H          0.3674199275        0.3921348637       -0.5273263546
 N          2.1220686923        2.1077339693        0.4742202784
 S          3.7610076341        2.2129837598        0.1322311194
 O          4.4807177401        2.5026781149        1.3470775663
 O          3.8811057694        3.1917674770       -0.9247990526
 C          4.1890832959        0.5847549342       -0.4568188226
 C          3.7259618411        0.2016983049       -1.6998362800
 C          3.9795516822       -1.0862025548       -2.1415470838
 C          4.6808225562       -1.9671663830       -1.3325937560
 C          5.1386477280       -1.5671530956       -0.0870957635
 C          4.8894671916       -0.2794070524        0.3595671762
 H          5.2267527509        0.0725108240        1.3205335314
 H          5.6835861844       -2.2550501188        0.5389223156
 H          4.8720111529       -2.9717537393       -1.6758495282
 H          3.6246979295       -1.3977588011       -3.1110741166
 H          3.1858678316        0.9138007408       -2.3035325045
 H          1.5845217446        2.3390676202       -0.3498114460
 H          3.0013845938        1.1255933315        2.7439666449
 H          2.3142608885       -1.0358379754        3.7575335082
 H          0.6633509401       -2.4639898362        2.6156751093
 H         -0.7299317094       -2.9223796319        0.8540787731
 C          0.0035614432       -2.4672633705       -1.0994184822
 C          1.0735471135       -3.5149728738       -1.1189432622
 C         -0.3029722018       -3.8392315977       -1.6155913844
 H         -0.4551754998       -3.9678124414       -2.6767422519
 H         -0.9306833323       -4.4736750546       -1.0064492462
 H          1.8715061391       -3.4199857951       -1.8383929147
 H          1.3817727658       -3.9317170011       -0.1722888422
 H          0.0672188066       -1.6665788706       -1.8237665918
