  62
        -98.94034016
 C         -2.2637818899       -0.6458996889       -0.2124137901
 C         -3.1495180999       -0.7385749483        0.8940258400
 C         -4.1593615297        0.3192936219        1.0184508895
 C         -4.1776853696        1.3153292615        0.1147555090
 C         -5.1838059494        2.4281798416        0.0826192284
 C         -6.3890925895        2.0606630614       -0.7943783514
 C         -6.9798382097        0.6845860716       -0.4869441007
 H         -7.8406601297        0.5462183214       -1.1447240806
 H         -6.2488192598       -0.0837595986       -0.7492786103
 C         -7.4148176097        0.4920792824        0.9726222394
 H         -8.3972369798        0.0154820725        0.9847778196
 H         -7.5197580396        1.4626572026        1.4586885489
 C         -6.4808920298       -0.3915218473        1.8018099598
 H         -6.2985517500       -1.3300642976        1.2723628603
 H         -6.9884992999       -0.6376192268        2.7381580900
 C         -5.1252728497        0.2271501026        2.1660077495
 H         -5.2785653196        1.2082598329        2.6198834590
 H         -4.6502047098       -0.4242106271        2.9051884598
 H         -7.1565849994        2.8257359015       -0.6640871617
 H         -6.0724026995        2.0715659408       -1.8399977114
 H         -5.5116657994        2.6430212522        1.0978397183
 H         -4.7024579393        3.3162593114       -0.3304406220
 O         -3.2959649496        1.3919183809       -0.9127225711
 C         -2.3250831497        0.4171239506       -1.1138729406
 O         -1.6062650597        0.6352069301       -2.1084420707
 O         -3.0999781000       -1.6751794179        1.7347977405
 C         -1.2532603400       -1.7696043091       -0.3633849695
 C          0.0781913700       -1.4161734990        0.2467140103
 C          0.7113700099       -2.2780125387        1.1342076107
 C          1.9529962000       -1.9629483286        1.6588629606
 C          2.5897366101       -0.7869209489        1.3043948500
 C          1.9633224802        0.0819231408        0.4207810096
 C          0.7161313902       -0.2316964593       -0.0958169103
 H          0.2413869803        0.4436008204       -0.7931452806
 N          2.6234687204        1.2728835305        0.0350208790
 S          3.9447933404        1.0092784198       -0.9816937409
 O          4.1661243805        2.2627956895       -1.6685642715
 O          3.7370408002       -0.1533162106       -1.8154670303
 C          5.2867299303        0.7134899802        0.1492923492
 C          5.6611680405        1.7374840406        0.9975432287
 C          6.7014578404        1.5215676408        1.8871535888
 C          7.3460245403        0.2933919708        1.9119697094
 C          6.9595955401       -0.7231057296        1.0517496699
 C          5.9191995401       -0.5141238799        0.1596899398
 H          5.5796260800       -1.2749656102       -0.5245268198
 H          7.4621950600       -1.6766975397        1.0725197104
 H          8.1547830303        0.1276635610        2.6060633495
 H          7.0055015206        2.3095676511        2.5572112684
 H          5.1356355906        2.6761648106        0.9406562883
 H          1.9978317105        1.9222555304       -0.4236561713
 H          3.5568366502       -0.5348692788        1.7077583299
 H          2.4312962799       -2.6410702083        2.3486607909
 H          0.2188741598       -3.1968167585        1.4172373712
 H         -1.6749200601       -2.5996213888        0.2255055409
 C         -1.1206302701       -2.2579615199       -1.8009914693
 C          0.1002545799       -2.0652688305       -2.6457134194
 C         -0.2364776503       -3.4269772301       -2.1207042187
 H         -0.5950791904       -4.1763139304       -2.8099205183
 H          0.3789852597       -3.8151542898       -1.3231990985
 H         -0.0497295401       -1.8589189909       -3.6949874295
 H          0.9525303500       -1.5491501804       -2.2297449396
 H         -2.0691365901       -2.2116031400       -2.3276719093
