  62
        -98.94109799
 C          2.0188898901        1.2290125870        0.1080534935
 C          2.8063076375        0.6710198803        1.1470813722
 C          3.9797899706       -0.1073744900        0.7301625503
 C          4.2242940385       -0.2724392163       -0.5823626640
 C          5.3510972917       -1.0853880623       -1.1494609974
 C          4.9197474408       -2.5384391860       -1.3923367592
 C          4.2196970120       -3.1831193635       -0.1958726455
 H          3.2662771213       -2.6770153949       -0.0260676014
 H          3.9891466414       -4.2147259920       -0.4709973218
 C          5.0392494287       -3.1704997319        1.1022674565
 H          4.9700285819       -4.1554028453        1.5690113151
 H          6.0909162335       -2.9938260452        0.8741236446
 C          4.5680759413       -2.1511394809        2.1412450537
 H          5.0676168153       -2.3753098261        3.0874725478
 H          3.4933683342       -2.2653228548        2.3048102042
 C          4.8523298207       -0.6801946129        1.8115983094
 H          4.6418483736       -0.0929250328        2.7102784789
 H          5.9077626007       -0.5573830473        1.5602186408
 H          5.8036660587       -3.1218455818       -1.6562921021
 H          4.2329569301       -2.5586478840       -2.2418584533
 H          6.1953159371       -1.0555886383       -0.4632613325
 H          5.6510436262       -0.6416390589       -2.1002865700
 O          3.4296021783        0.2460800489       -1.5510773502
 C          2.2997748506        0.9949189036       -1.2393870220
 O          1.6590371021        1.3736450527       -2.2359858627
 O          2.5344477020        0.8119128558        2.3697862605
 C          0.7935719507        2.0307964029        0.5105083101
 C         -0.4120152551        1.5517241503       -0.2584778613
 C         -1.1773198496        2.3642510643       -1.0831707211
 C         -2.2611187367        1.8430205208       -1.7692433919
 C         -2.6083856090        0.5111075556       -1.6451315051
 C         -1.8558658549       -0.3087201112       -0.8128164492
 C         -0.7765520441        0.2171687504       -0.1205291963
 H         -0.1865336604       -0.4247206663        0.5227759439
 N         -2.2010682823       -1.6629056495       -0.6736482627
 S         -3.8155522527       -2.0664727609       -0.5129687265
 O         -3.8180490676       -3.3237790065        0.2018537761
 O         -4.4478555211       -2.0783624907       -1.8084566022
 C         -4.5247977613       -0.7757001603        0.4939801321
 C         -5.5265543104        0.0257854402       -0.0138562130
 C         -6.0412507039        1.0388369741        0.7795198748
 C         -5.5448374987        1.2337876913        2.0587996822
 C         -4.5399507090        0.4178369205        2.5561985399
 C         -4.0231695776       -0.5973761488        1.7681958480
 H         -3.2463411758       -1.2532857376        2.1277053462
 H         -4.1551881430        0.5702634525        3.5518519569
 H         -5.9429950990        2.0250560147        2.6740545955
 H         -6.8240251546        1.6732994217        0.3963601261
 H         -5.8823331980       -0.1596726658       -1.0141826519
 H         -1.6246151956       -2.1735540366       -0.0221992290
 H         -3.4344057521        0.0874312350       -2.1928034808
 H         -2.8389853517        2.4827029802       -2.4185903526
 H         -0.9090480816        3.3994154836       -1.2128540159
 H          0.6400212084        1.7709470112        1.5716354187
 C          0.9839261102        3.5391532427        0.4648250214
 C          2.3393799820        4.1514988422        0.6494929498
 C          1.6542169985        4.2356726211       -0.6798563722
 H          1.2653121793        5.1934020460       -0.9939273191
 H          2.0215493009        3.6273910589       -1.4910162343
 H          2.4211538419        5.0475370458        1.2463040629
 H          3.1824006505        3.4829061024        0.7484671833
 H          0.1561600581        4.0629269891        0.9329683410
