  62
        -98.94319784
 C          1.8609909578       -0.7851211483       -0.7225672442
 C          2.8235553017       -1.1900035307        0.2350118769
 C          4.1697368236       -0.6255023545        0.0642189051
 C          4.4301177819        0.2053442521       -0.9600361058
 C          5.7561556500        0.8451235319       -1.2701369921
 C          6.0297400041        2.1304107741       -0.4769698255
 C          6.3463539983        1.9259490710        1.0051780151
 H          7.1438756184        1.1892221006        1.1064518580
 H          6.7298987027        2.8754005815        1.3840859070
 C          5.1416565977        1.5046669468        1.8583924885
 H          4.2177260111        1.7170628917        1.3150336281
 H          5.1174255073        2.1009549052        2.7733359784
 C          5.1439017835        0.0339795850        2.2754227999
 H          5.9941884343       -0.1587928397        2.9333475458
 H          4.2287491297       -0.1627060160        2.8392851579
 C          5.1995727963       -0.9538955277        1.1030655662
 H          6.1961022071       -0.9601275597        0.6624678493
 H          4.9784378879       -1.9529890963        1.4859805767
 H          5.1667262588        2.7929386327       -0.5775282492
 H          6.8841967315        2.6255545998       -0.9443093340
 H          6.5592191538        0.1290377157       -1.0933571389
 H          5.7397448251        1.0938492770       -2.3335019803
 O          3.4845347610        0.5530925830       -1.8736045679
 C          2.1860696621        0.0853278479       -1.7673601552
 O          1.4227749366        0.5003555954       -2.6640104250
 H         -1.3775972243        0.7272182000       -1.0952263552
 C         -1.2385459985        0.5210548901       -0.0440856113
 C         -0.3508351254       -0.4670917303        0.3594121670
 C         -0.1681345198       -0.6861450912        1.7214862239
 C         -0.8568560130        0.0713754066        2.6504408818
 C         -1.7524955855        1.0451818379        2.2444766645
 C         -1.9407620513        1.2742206922        0.8871964198
 N         -2.8420730770        2.2598073948        0.4433674420
 S         -3.9932692567        1.8329998367       -0.6945741171
 O         -3.3798526963        1.6466767217       -1.9839798079
 O         -4.9972605299        2.8703860411       -0.6057835028
 C         -4.6486449276        0.2909241325       -0.0847625046
 C         -4.1489057584       -0.9009596718       -0.5681376939
 C         -4.6056323959       -2.0895860854       -0.0209484795
 C         -5.5484273381       -2.0649521065        0.9949034358
 C         -6.0461599567       -0.8592004217        1.4655204234
 C         -5.5892618186        0.3320029758        0.9261081460
 H         -5.9556104890        1.2903791626        1.2568647396
 H         -6.7834825706       -0.8444338397        2.2518501702
 H         -5.8985546244       -2.9923488178        1.4196995495
 H         -4.2197445790       -3.0276477563       -0.3867952155
 H         -3.4206855811       -0.8756871366       -1.3625769788
 H         -3.2727504972        2.7846585101        1.1915443210
 H         -2.2929614576        1.6332174995        2.9708347635
 H         -0.6996160377       -0.1025087538        3.7040532890
 H          0.5417831989       -1.4311453207        2.0438306684
 C          0.4119217441       -1.2495571539       -0.6832395883
 H         -0.0057425689       -0.9882403390       -1.6652699131
 C          0.2779011006       -2.7467019660       -0.4891829280
 C         -0.9685249207       -3.4321894903       -0.9575284837
 C          0.3225956943       -3.6418936521       -1.6892035705
 H          0.8204297562       -4.5959022531       -1.6018171066
 H          0.4433577921       -3.1751167915       -2.6566036696
 H         -1.3615347923       -4.2450230029       -0.3668077319
 H         -1.7219203979       -2.8241499197       -1.4351867460
 H          0.7477115070       -3.1116813430        0.4136561835
 O          2.5998178191       -1.9825009960        1.1861195615
