  62
        -98.94307514
 C         -1.7084214803       -1.2500363824        0.3474103061
 C         -1.3732862726       -0.1707694905       -0.5010826102
 C         -1.9012106351        1.1487897582       -0.1227777174
 C         -2.6230721913        1.2698864930        1.0039669885
 C         -3.2059492142        2.5204361661        1.6135087292
 C         -3.8850359344        3.5219963429        0.6687432314
 C         -4.5855446739        2.8972073479       -0.5468792780
 H         -4.6548772277        1.8153011650       -0.4219669314
 H         -5.6042173687        3.2848576286       -0.6058749709
 C         -3.8836844693        3.2156138976       -1.8692125817
 H         -4.5955911108        3.0766966920       -2.6862904915
 H         -3.5915824436        4.2678979157       -1.8648764000
 C         -2.6589051973        2.3578621364       -2.1846742527
 H         -2.1874838456        2.7629331512       -3.0830415611
 H         -2.9728259247        1.3369401657       -2.4176073762
 C         -1.6032693523        2.2755393596       -1.0695690282
 H         -1.5033038552        3.2227104227       -0.5447205094
 H         -0.6409735606        2.0361132212       -1.5300175019
 H         -3.1512326270        4.2482892731        0.3219240002
 H         -4.6135731515        4.0729624404        1.2660633735
 H         -3.9286947622        2.1658074219        2.3527633254
 H         -2.4064929740        3.0266750509        2.1634302079
 O         -2.9045925512        0.2049421189        1.8080305933
 C         -2.4511896287       -1.0681149558        1.5105436960
 O         -2.7725344292       -1.9403621851        2.3454399708
 O         -0.6524054911       -0.3009457144       -1.5257211034
 C         -1.1803024167       -2.6395195624        0.0405686017
 C          0.3233246404       -2.5940426535       -0.0893691444
 C          1.0294941481       -3.2888363313       -1.0635729990
 C          2.4076960195       -3.1830769893       -1.1407687472
 C          3.1063346818       -2.3691478910       -0.2678296210
 C          2.4094074591       -1.6799883522        0.7178144854
 C          1.0355351440       -1.8210199658        0.8188325488
 H          0.5096110285       -1.2809060095        1.5930367534
 N          3.0675649549       -0.8224259099        1.6245976812
 S          2.6596587853        0.8031547921        1.5793257118
 O          3.5209277516        1.4301809251        2.5596066674
 O          1.2425283700        0.9665905904        1.7771944991
 C          3.1454925145        1.3349177303       -0.0533838308
 C          4.3499720353        1.9964530942       -0.2013859544
 C          4.7676096727        2.3570149834       -1.4719664396
 C          3.9818541863        2.0416155882       -2.5704830918
 C          2.7790580835        1.3729529287       -2.4048418265
 C          2.3518817068        1.0117151847       -1.1357291282
 H          1.4168528613        0.4932703278       -0.9880186725
 H          2.1615209348        1.1223136437       -3.2525868101
 H          4.3069444071        2.3184951188       -3.5609755106
 H          5.7022593262        2.8785447663       -1.6013464114
 H          4.9248860849        2.2215697362        0.6824441003
 H          4.0751473702       -0.9067307735        1.6039682733
 H          4.1780976388       -2.2647829189       -0.3454675480
 H          2.9425798533       -3.7269709719       -1.9041857447
 H          0.4990835098       -3.9084352528       -1.7680804383
 H         -1.4341462295       -3.2621675566        0.9114694976
 C         -1.8714928180       -3.2044404543       -1.1840005383
 C         -2.1046260615       -4.6792672311       -1.3109715220
 C         -3.2554405639       -3.7593288677       -1.0380320168
 H         -3.9710990315       -3.5766660174       -1.8255571658
 H         -3.6868120171       -3.7540192425       -0.0472028839
 H         -2.0347744054       -5.1309091688       -2.2890538379
 H         -1.7620964615       -5.3113206956       -0.5055973029
 H         -1.6511338592       -2.6389728527       -2.0822460190
