  62
        -98.94490732
 C          1.8830736248       -1.0802840601        0.2112830524
 C          3.0239927157       -1.1659218234       -0.6317961301
 C          4.2530169744       -0.5411907553       -0.1343142064
 C          4.2561074604        0.0497499049        1.0739054879
 C          5.4347639384        0.7091306607        1.7367340560
 C          5.6681694603        2.1608262505        1.2964264701
 C          6.2242129556        2.3303690909       -0.1180280681
 H          6.5448813745        3.3696844670       -0.2134988254
 H          7.1095077281        1.7048468073       -0.2365816042
 C          5.2183450159        2.0202391016       -1.2355624222
 H          4.2051961512        2.0245879589       -0.8262920470
 H          5.2593444628        2.8079145752       -1.9913284860
 C          5.4566720296        0.6914032134       -1.9529903522
 H          6.4116900815        0.7267566734       -2.4818490892
 H          4.6652170120        0.5569705006       -2.6946958122
 C          5.4546113186       -0.5340791949       -1.0299896888
 H          5.4114051445       -1.4316189190       -1.6517146015
 H          6.3697767775       -0.5612667790       -0.4388569461
 H          4.7274782659        2.7093166761        1.3859676571
 H          6.3785045693        2.6036842211        1.9984744473
 H          5.2316227693        0.7034924579        2.8098380567
 H          6.3348661396        0.1225328108        1.5504938911
 O          3.1516885503        0.0947310336        1.8618164050
 C          1.9397098557       -0.4429301179        1.4505437951
 O          1.0255352211       -0.2828782664        2.2857802778
 H         -0.6496705344        0.2985382412        0.9834978906
 C         -0.9118739693        0.2717773206       -0.0636859152
 C         -0.3370525174       -0.6885917998       -0.8843421823
 C         -0.6758483693       -0.6991135707       -2.2321092238
 C         -1.5663958012        0.2291192668       -2.7441890717
 C         -2.1372084378        1.1844899674       -1.9230035178
 C         -1.7987356514        1.2063095140       -0.5760980498
 N         -2.3898002146        2.1658195806        0.2730574564
 S         -4.0654428989        2.1157069225        0.3352980575
 O         -4.6023361045        2.7794453826       -0.8263229405
 O         -4.4294253272        2.6833567485        1.6140128057
 C         -4.4523405665        0.3755336734        0.2763740402
 C         -4.1463032095       -0.3936555892        1.3813842347
 C         -4.3623009423       -1.7605729805        1.3267541476
 C         -4.8694431123       -2.3331361622        0.1703458542
 C         -5.1727449033       -1.5468016450       -0.9299217456
 C         -4.9608568075       -0.1783520291       -0.8805964346
 H         -5.1822857388        0.4695083429       -1.7126059519
 H         -5.5681755316       -1.9953213673       -1.8268196768
 H         -5.0296357812       -3.3989696330        0.1276969343
 H         -4.1293673711       -2.3721657830        2.1838659994
 H         -3.7539396109        0.0848329538        2.2648246369
 H         -2.0084857344        2.1429483482        1.2086168847
 H         -2.8378597066        1.9123829941       -2.2992684071
 H         -1.8192309290        0.2081953578       -3.7931504122
 H         -0.2275128298       -1.4363728141       -2.8818811084
 C          0.6073742686       -1.7187195909       -0.3125331196
 H          0.9341146793       -2.3654529375       -1.1376760662
 C         -0.1072044382       -2.5757210117        0.7151360661
 C         -1.0869196366       -3.6056714472        0.2421397438
 C          0.2287826932       -4.0316341354        0.8198211519
 H          0.2431026400       -4.4868027889        1.7987918970
 H          0.9804785990       -4.4207824885        0.1485700924
 H         -1.2291641715       -3.7061976102       -0.8228981376
 H         -1.9813459162       -3.7682620454        0.8225186487
 H         -0.3306513643       -2.0503350192        1.6342033709
 O          3.0144457131       -1.7495785243       -1.7476815244
