  62
        -98.93697305
 C         -1.9837591201       -0.3605864102       -0.3107416799
 C         -2.7636742402        0.7045909596        0.1980926204
 C         -4.1550412702        0.3847069294        0.5736136403
 C         -4.6130534101       -0.8723878906        0.4353365999
 C         -5.9539193300       -1.4898304809        0.7737926297
 C         -7.1734188901       -0.6121768010        1.0449493199
 C         -7.6791230002        0.1739874793       -0.1640321598
 H         -8.0992117301       -0.5305580405       -0.8863902000
 H         -8.4870309102        0.8291383091        0.1692892104
 C         -6.6301405202        1.0105075797       -0.8924978395
 H         -5.8729969802        0.3535240599       -1.3256348397
 H         -7.1268447203        1.5189016499       -1.7234789693
 C         -5.9375071403        2.0747450394       -0.0435263291
 H         -5.3449885304        2.6979722497       -0.7185591789
 H         -6.6868597404        2.7126036192        0.4291517911
 C         -4.9892149303        1.5414355191        1.0445121207
 H         -4.2884855903        2.3408959191        1.3014454310
 H         -5.5312746203        1.2791233788        1.9497617006
 H         -6.9795357602        0.0560910987        1.8786962902
 H         -7.9757944101       -1.2852495912        1.3593566697
 H         -6.1814220200       -2.1729032906       -0.0508659806
 H         -5.7780640300       -2.1187157511        1.6537046194
 O         -3.8161826800       -1.8752164704       -0.0385883105
 C         -2.5116399100       -1.6485638002       -0.4308956704
 O         -1.9298154799       -2.6616731700       -0.8706095807
 H          1.7257326700       -1.6404885097       -0.6571538903
 C          1.5888668399       -1.0155596501        0.2123186099
 C          0.4594229599       -0.2180874202        0.3307162202
 C          0.3178462698        0.5741310694        1.4650877704
 C          1.2775423498        0.5515050291        2.4605602104
 C          2.4110035598       -0.2319834407        2.3306606402
 C          2.5703585099       -1.0133839703        1.1936136399
 N          3.7309091500       -1.7915698302        0.9975464096
 S          4.6789578200       -1.3847278496       -0.3246477602
 O          3.9512851100       -1.6351028293       -1.5412661203
 O          5.9131793100       -2.1161888796       -0.1477429904
 C          4.9715877398        0.3639143903       -0.1206446296
 C          6.1141180898        0.7748861202        0.5380922406
 C          6.3032867197        2.1270295101        0.7737385410
 C          5.3440293196        3.0395780702        0.3612692213
 C          4.2009992696        2.6104976103       -0.2955513388
 C          4.0090598798        1.2601294604       -0.5420079093
 H          3.1320561898        0.8958910905       -1.0513827394
 H          3.4522638996        3.3184484904       -0.6130257286
 H          5.4872323195        4.0915698201        0.5513760817
 H          7.1927363496        2.4639419400        1.2813905811
 H          6.8333353598        0.0306595002        0.8400910603
 H          4.3159327100       -1.8579802004        1.8193710296
 H          3.1663524198       -0.2393635609        3.1020803102
 H          1.1487026897        1.1627108488        3.3407195106
 H         -0.5478739703        1.2108819093        1.5564788106
 C         -0.5515860701       -0.2005661399       -0.7911603998
 H         -0.3542382400       -1.0784481796       -1.4221578001
 C         -0.3446094602        1.0444321904       -1.6359535694
 C          0.7648962198        1.0659445509       -2.6421709394
 C         -0.6617094602        0.9960574609       -3.0984617394
 H         -1.1012077803        1.8673153710       -3.5602658091
 H         -1.0230122101        0.0601441010       -3.5004809998
 H          1.3041718797        1.9884601510       -2.7962832591
 H          1.3734339199        0.1782941109       -2.7453026197
 H         -0.5681639103        1.9606770402       -1.1052891991
 O         -2.3406184503        1.8802947696        0.3550949409
