  62
        -98.93348556
 C         -2.5610608190       -1.2890944653        0.3672465526
 C         -2.9244721403       -0.1398928079        1.1114238486
 C         -4.1038806001        0.6145313609        0.6554084540
 C         -4.7651644768        0.1971154968       -0.4403142059
 C         -6.0146572670        0.7225261686       -1.1161914765
 C         -6.5874077749        2.0872878946       -0.7443703195
 C         -5.7248760994        3.2767096550       -1.1665101790
 H         -5.7589627308        3.3597928769       -2.2556948036
 H         -6.1650891910        4.1851736926       -0.7499383517
 C         -4.2554025978        3.2044708511       -0.7586528179
 H         -3.7557302456        4.0972104251       -1.1447875604
 H         -3.7827741581        2.3426594298       -1.2345051847
 C         -3.9955811860        3.1435543416        0.7451218443
 H         -4.4813535197        3.9887170404        1.2370529276
 H         -2.9168868898        3.2434442833        0.8970163244
 C         -4.4433680384        1.8477809141        1.4420528845
 H         -3.8973086680        1.7677970105        2.3867427541
 H         -5.5041646120        1.8741790332        1.6797510687
 H         -6.8015768150        2.1277693792        0.3195409906
 H         -7.5457037521        2.1752479368       -1.2633583290
 H         -6.7852619602       -0.0361407916       -0.9403401243
 H         -5.8042053843        0.7026345380       -2.1902212372
 O         -4.3706079669       -0.9084227355       -1.1342514805
 C         -3.2657572022       -1.6686654005       -0.7742323357
 O         -3.0468637955       -2.6222362735       -1.5416574505
 O         -2.2923808133        0.2331584264        2.1378201087
 C         -1.3506692590       -2.0619757891        0.8598819234
 C         -0.0977324068       -1.5104702801        0.2292516761
 C          0.0401139800       -1.4347015838       -1.1538145911
 C          1.1888675923       -0.9063319265       -1.7129504242
 C          2.2161791737       -0.4372038890       -0.9116971459
 C          2.0785638131       -0.4857262349        0.4684616162
 C          0.9280749588       -1.0292846464        1.0280861462
 H          0.8188855786       -1.0553223330        2.1039108259
 N          3.1123867821       -0.0139835693        1.2909592759
 S          3.8897942762        1.4208336441        0.9017607661
 O          4.4432389927        1.8933593294        2.1517683991
 O          3.0146432493        2.3306904670        0.2001977874
 C          5.2216831543        0.9028661721       -0.1613900369
 C          5.4062734804        1.5187680364       -1.3836570854
 C          6.4557971226        1.1068001274       -2.1903456892
 C          7.2983248769        0.0924991983       -1.7621790232
 C          7.1017004361       -0.5133851568       -0.5300950146
 C          6.0554544616       -0.1053373275        0.2815382086
 H          5.8712065203       -0.5486992760        1.2457281483
 H          7.7590177908       -1.3018373164       -0.2006077060
 H          8.1127318425       -0.2277265068       -2.3926435058
 H          6.6106391857        1.5776464691       -3.1478772777
 H          4.7227533244        2.2992908044       -1.6785809644
 H          2.9053529897       -0.0585229497        2.2782206528
 H          3.1084141015       -0.0179884180       -1.3467645756
 H          1.2865839884       -0.8570167969       -2.7869636849
 H         -0.7649527321       -1.7899906367       -1.7797634718
 H         -1.3005301493       -1.8379233761        1.9375841690
 C         -1.4908762474       -3.5707326057        0.7192342511
 C         -0.6515676653       -4.4061051083       -0.1956576931
 C         -0.4299679333       -4.4694554373        1.2837171145
 H         -0.7318141940       -5.3563426469        1.8198076487
 H          0.4596810893       -3.9972777772        1.6733256604
 H         -1.1316929031       -5.2379507292       -0.6877990922
 H          0.0934399803       -3.9149476213       -0.8008461534
 H         -2.5189114182       -3.8928202627        0.8488192973
