  62
        -98.94400970
 C         -2.1866669192       -1.2332187969       -0.1763198484
 C         -2.6090662214       -0.1293107254       -0.9551335431
 C         -4.0002500616        0.3010505980       -0.7504491591
 C         -4.7773702469       -0.3666361652        0.1216766939
 C         -6.1924376964       -0.0025093446        0.4639689457
 C         -6.2447093052        0.9518799757        1.6652600990
 C         -5.2973699282        2.1459301569        1.5474194830
 H         -5.4419930921        2.7648424695        2.4356260397
 H         -4.2654226574        1.7879059891        1.5704793563
 C         -5.5069833248        3.0004803508        0.2895565918
 H         -6.4903130732        2.7979894512       -0.1366065191
 H         -5.4884899871        4.0543669928        0.5751733821
 C         -4.4390269395        2.8135312763       -0.7898845239
 H         -3.4456193196        2.9243359619       -0.3471051555
 H         -4.5582214230        3.6116802197       -1.5276135718
 C         -4.4824616613        1.4803227673       -1.5472727014
 H         -5.4914522083        1.3048024843       -1.9261230731
 H         -3.8035337627        1.5623885409       -2.4012184703
 H         -7.2700381736        1.3086746908        1.7783465174
 H         -5.9786760944        0.3915907142        2.5645410864
 H         -6.6631615321        0.4595891910       -0.4015391065
 H         -6.7319850818       -0.9173857563        0.7146554879
 O         -4.3404308562       -1.4343838195        0.8370257481
 C         -3.0358909114       -1.8838021508        0.7193163643
 O         -2.7566582826       -2.8542919972        1.4516796444
 H          1.2407289255       -0.5452790567       -1.7759577136
 C          1.1567213034       -0.1488510901       -0.7766149810
 C          0.1976602818       -0.6477419496        0.0893163303
 C          0.1161385904       -0.1110379631        1.3720640882
 C          0.9598288979        0.9083120098        1.7686909714
 C          1.9050961320        1.4169514773        0.8945507345
 C          1.9982374784        0.8854847765       -0.3840230889
 N          2.9582890237        1.3928261406       -1.2743937780
 S          4.5136248728        1.6330346051       -0.7103889969
 O          4.5798602785        2.8642170495        0.0365374978
 O          5.3565729475        1.5584194260       -1.8827373595
 C          4.8254912395        0.2498091268        0.3729286103
 C          5.0296478287        0.4599590855        1.7211337307
 C          5.2321192263       -0.6343775217        2.5470599791
 C          5.2231083178       -1.9133694230        2.0132009810
 C          5.0197876423       -2.1081045824        0.6553618382
 C          4.8173529486       -1.0179879324       -0.1747470678
 H          4.6639922571       -1.1344555063       -1.2354842182
 H          5.0157720191       -3.1041638448        0.2425365510
 H          5.3765503145       -2.7643925239        2.6579133933
 H          5.3927443267       -0.4860459678        3.6027848544
 H          5.0289203448        1.4706934507        2.0953039199
 H          2.9538415652        0.9527839801       -2.1823742437
 H          2.5600753188        2.2241269902        1.1795648849
 H          0.8800206893        1.3156614929        2.7652064188
 H         -0.6272672722       -0.5044238577        2.0524732975
 C         -0.7620134441       -1.7483966032       -0.2914613547
 H         -0.6709323038       -2.5504827344        0.4544468433
 C         -0.5187421429       -2.3338236296       -1.6662458321
 C          0.5695548949       -3.3448128826       -1.8647290211
 C         -0.8668377121       -3.7695392901       -1.9134838692
 H         -1.2948994212       -4.0388590001       -2.8674784507
 H         -1.2650061398       -4.3339493602       -1.0828366590
 H          1.1289083580       -3.3291365405       -2.7880630915
 H          1.1500822615       -3.6270462993       -0.9997344101
 H         -0.7193352805       -1.6295640215       -2.4653865845
 O         -1.8687697493        0.4662062499       -1.7809753010
