  62
        -98.94052940
 C         -0.0590686626       -1.8675541829        0.7662323119
 C          1.0611718374       -2.3805022689        0.0634728876
 C          2.3504216459       -1.7189749271        0.2974524359
 C          2.4087570987       -0.6928198910        1.1641678825
 C          3.6149342042        0.1646395316        1.4244328321
 C          3.7649863679        1.2023989818        0.2924764721
 C          5.0107555035        1.0168767011       -0.5755944917
 H          5.8826608660        1.3825481551       -0.0282019820
 H          4.8853007483        1.6479860951       -1.4583154501
 C          5.3093288525       -0.4165198161       -1.0257474143
 H          5.7904838314       -0.9629801858       -0.2129822653
 H          6.0418803717       -0.3493310825       -1.8329734373
 C          4.1050694069       -1.2291412510       -1.5195272087
 H          4.4197988057       -1.8161576561       -2.3850476385
 H          3.3060023834       -0.5670019033       -1.8580339594
 C          3.5343633083       -2.2159327495       -0.4827399931
 H          4.3261789870       -2.5304625344        0.2027032606
 H          3.1752065671       -3.1070957881       -1.0057259171
 H          3.7999986024        2.2072158893        0.7192802154
 H          2.8724521663        1.1594914550       -0.3385153223
 H          4.5044263504       -0.4573389973        1.4947468799
 H          3.4610972690        0.6653391624        2.3808199364
 O          1.3285461626       -0.2588963399        1.8576197934
 C          0.0621441051       -0.7909797363        1.6446588817
 O         -0.8271201389       -0.2157966282        2.3014941439
 O          0.9789808489       -3.3537118421       -0.7358565201
 C         -1.4080930192       -2.4526315391        0.3854215261
 C         -1.9491841242       -1.7025241153       -0.8120588653
 C         -2.5564174590       -2.3634637076       -1.8731219416
 C         -2.9798775709       -1.6608303865       -2.9876886685
 C         -2.7720593825       -0.2960742642       -3.0835940137
 C         -2.1689770544        0.3728792766       -2.0251643533
 C         -1.8035397586       -0.3259277538       -0.8859656380
 H         -1.3556060319        0.2107651032       -0.0654990481
 N         -1.9057611751        1.7496590095       -2.0735883370
 S         -0.4974309040        2.3270254524       -1.3674857727
 O         -0.2432192548        3.5786982481       -2.0542789651
 O          0.5743598921        1.3588193581       -1.4302479491
 C         -0.9318817774        2.6938473020        0.3177181604
 C          0.0728886342        2.7103153524        1.2628706078
 C         -0.2412688833        3.0388507161        2.5710451509
 C         -1.5485387740        3.3481882695        2.9084444951
 C         -2.5456095285        3.3328506774        1.9458761013
 C         -2.2381302896        3.0062583497        0.6353181358
 H         -2.9912630248        2.9736338629       -0.1345767838
 H         -3.5634596643        3.5674674699        2.2137217444
 H         -1.7919518557        3.5945924176        3.9300174851
 H          0.5330646072        3.0383350584        3.3213475879
 H          1.0747255313        2.4437227942        0.9652381613
 H         -2.0944404977        2.1972101836       -2.9587460161
 H         -3.0625280944        0.2455161189       -3.9708484684
 H         -3.4499760681       -2.1854613301       -3.8055254415
 H         -2.6742725549       -3.4358510284       -1.8329188996
 H         -1.2059429550       -3.4839793409        0.0637750043
 C         -2.4307699786       -2.4889880786        1.5022058896
 C         -3.5212284593       -3.5160760021        1.4648499629
 C         -2.4187341047       -3.6296027113        2.4734860580
 H         -2.6369038147       -3.4221252228        3.5098706914
 H         -1.6734164630       -4.3985292535        2.3304017353
 H         -4.5042615731       -3.2324577684        1.8073295124
 H         -3.5266221888       -4.2162031923        0.6435128952
 H         -2.6727592113       -1.5089512924        1.8913486962
