  62
        -98.94129681
 C         -1.3237432588       -1.6076146720       -0.3206466719
 C         -2.5082435024       -1.4405031240        0.4394078041
 C         -3.3867731169       -0.3244231297        0.0584349426
 C         -3.0277383600        0.4821746856       -0.9575953020
 C         -3.7583205841        1.6523685423       -1.5799974021
 C         -4.7863264248        2.4449967274       -0.7733441291
 C         -4.2523141895        3.1207345379        0.4878394932
 H         -3.5299024746        3.8892310047        0.2010917136
 H         -5.0907949804        3.6239957845        0.9749884555
 C         -3.5794083656        2.1957708825        1.5005948544
 H         -2.6333119800        1.8279312959        1.0986955215
 H         -3.3426216205        2.7903063881        2.3871216085
 C         -4.4174827016        0.9999471817        1.9528360284
 H         -5.3991261746        1.3413478218        2.2864530317
 H         -3.9093391917        0.5538519143        2.8115794271
 C         -4.6089654731       -0.1128339718        0.9029803740
 H         -4.7871461942       -1.0522293681        1.4336533377
 H         -5.4759614117        0.0764551330        0.2737117454
 H         -5.1588305635        3.2305551204       -1.4367699459
 H         -5.6364041597        1.8170976797       -0.5224650658
 H         -2.9781492293        2.3318657680       -1.9344800272
 H         -4.2567699146        1.2611130054       -2.4740544580
 O         -1.8791320247        0.2821540580       -1.6619572096
 C         -0.9969400435       -0.7434806933       -1.3646869057
 O          0.0070335301       -0.7676214509       -2.1018455743
 H          1.9251939151       -1.8034052646       -1.0647302660
 C          1.9006987006       -1.6403738819        0.0008251495
 C          0.8173273114       -2.0875847288        0.7424965680
 C          0.7991651175       -1.8364144149        2.1112556487
 C          1.8380829260       -1.1557447952        2.7194714346
 C          2.9062182567       -0.6902824169        1.9720471638
 C          2.9246327113       -0.9248279396        0.6040456904
 N          3.9779131291       -0.4011213319       -0.1781386281
 S          4.1278900605        1.2685654609       -0.1337142588
 O          4.8755395416        1.6223534486       -1.3192636876
 O          4.7225075680        1.6484350155        1.1237441185
 C          2.4642883117        1.9052517465       -0.2315505385
 C          1.7975050396        2.2466262302        0.9278913951
 C          0.4923627513        2.7017780560        0.8384013582
 C         -0.1172425984        2.8103415678       -0.4016111443
 C          0.5648602389        2.4625836190       -1.5564504851
 C          1.8668898721        1.9986520059       -1.4720030495
 H          2.4266048196        1.7184322814       -2.3498176319
 H          0.0840110506        2.5339499616       -2.5187775407
 H         -1.1327671662        3.1686766863       -0.4673244485
 H         -0.0464037588        2.9687601589        1.7337774707
 H          2.3104324598        2.1596660403        1.8714564482
 H          3.9245695727       -0.6995013011       -1.1426092724
 H          3.7131466697       -0.1340165370        2.4210928414
 H          1.8128071959       -0.9761879741        3.7835615737
 H         -0.0507695619       -2.1669418680        2.6913287968
 C         -0.3775096274       -2.7280481895        0.0819391812
 H         -0.9192025717       -3.3088551729        0.8398704063
 C         -0.0229943232       -3.6435995779       -1.0702990166
 C          0.6183975202       -4.9661104952       -0.7777300623
 C         -0.7981615371       -4.9110463344       -1.2631983988
 H         -1.0120239002       -5.2351349485       -2.2707309663
 H         -1.5884582246       -5.1269474503       -0.5592751366
 H          0.7899611191       -5.2173255421        0.2580720515
 H          1.3796548178       -5.3314496357       -1.4499327131
 H          0.2871385033       -3.1178298741       -1.9644111800
 O         -2.8252078793       -2.2004522194        1.3927640775
