  62
        -98.94143665
 C         -2.3204178547       -1.1025263998       -0.5560841366
 C         -3.6277987039       -0.9652604987       -0.0245500317
 C         -4.3562795424        0.2471083534       -0.4107816006
 C         -3.7711416656        1.1459331015       -1.2230730677
 C         -4.3884854072        2.4256112055       -1.7182117651
 C         -4.2635583567        3.5980135170       -0.7354849213
 C         -5.1622093919        3.5108267585        0.4987556956
 H         -5.1362002904        4.4889675074        0.9831366446
 H         -6.1909254199        3.3294354560        0.1858707458
 C         -4.7366746158        2.4450555982        1.5185223567
 H         -3.7024635663        2.1480353500        1.3266680361
 H         -4.7626739470        2.8720118990        2.5237256483
 C         -5.6171274422        1.1952967091        1.5345003315
 H         -5.2023337719        0.4945598186        2.2635333851
 H         -6.6253154028        1.4618243560        1.8592106072
 C         -5.7133371526        0.4729628942        0.1843675862
 H         -6.3405078771        1.0407839861       -0.5023148646
 H         -6.1705688321       -0.5053397531        0.3510314199
 H         -3.2202216627        3.6811022460       -0.4212839028
 H         -4.5196332909        4.5092007085       -1.2810548947
 H         -5.4394326237        2.2582196806       -1.9553500645
 H         -3.8612952504        2.6897191261       -2.6374173668
 O         -2.5167154723        0.9762497684       -1.7169512302
 C         -1.7519054320       -0.1328753521       -1.3822145604
 O         -0.6154629022       -0.1325464039       -1.8941279828
 O         -4.1611486828       -1.8191040850        0.7323782855
 C         -1.5105208714       -2.3232584778       -0.1493800044
 C         -0.4023824706       -1.8535680902        0.7600667648
 C         -0.6849293111       -1.6036808539        2.1003616003
 C          0.2838003158       -1.0906839648        2.9422024766
 C          1.5521337946       -0.8081652614        2.4648568391
 C          1.8396532799       -1.0446554872        1.1278180992
 C          0.8705137390       -1.5772805673        0.2872825718
 H          1.1020017491       -1.7398196378       -0.7533985912
 N          3.1254015585       -0.7551443094        0.6263093145
 S          3.7619084125        0.7566580361        1.0360692111
 O          4.3239471772        0.6654825066        2.3614118689
 O          2.7704606629        1.7922968349        0.8451237463
 C          5.0707380558        0.9086144075       -0.1628932720
 C          4.8015133385        1.5168488054       -1.3743032830
 C          5.8129349686        1.6065996928       -2.3177688012
 C          7.0671588181        1.0855130878       -2.0366146427
 C          7.3211020713        0.4764209588       -0.8167052370
 C          6.3149757430        0.3847479403        0.1318603364
 H          6.4661848190       -0.0716413902        1.0960034409
 H          8.2979030670        0.0739570763       -0.6023346828
 H          7.8515412745        1.1569856180       -2.7734102615
 H          5.6179155630        2.0809631562       -3.2662063122
 H          3.8131272218        1.9131102521       -1.5480478544
 H          3.1586450698       -0.8791658348       -0.3774805141
 H          2.3125440427       -0.3886688520        3.1036765081
 H          0.0502472987       -0.9013664399        3.9794107088
 H         -1.6822049517       -1.8007888079        2.4689866730
 H         -2.1979864936       -2.9432693260        0.4415035492
 C         -1.0344977415       -3.1236251554       -1.3427414519
 C         -0.5109189497       -4.5119334954       -1.1312801711
 C         -1.8361703134       -4.3042439322       -1.7987617197
 H         -1.9161502691       -4.4926201871       -2.8588685089
 H         -2.7316911580       -4.5440636000       -1.2446145902
 H          0.3206289146       -4.8471710686       -1.7318873027
 H         -0.5054789614       -4.8915900800       -0.1208250243
 H         -0.5710429577       -2.5168626978       -2.1108849094
