  62
        -98.93678829
 C         -2.5419155747       -1.2572576393        0.2897357648
 C         -2.7143041286       -0.3436465696       -0.7745642656
 C         -3.7592019342        0.6897277040       -0.6084195023
 C         -4.4919795009        0.7051059768        0.5197824839
 C         -5.5718424636        1.6730202203        0.9243764921
 C         -5.0108154879        3.0272310998        1.3867847858
 C         -3.9007454425        3.5955817024        0.5068418590
 H         -3.5196358987        4.4969978236        0.9939016180
 H         -3.0776315689        2.8800157072        0.4613801094
 C         -4.3246192336        3.9741598841       -0.9103177298
 H         -3.4651711118        4.4501413097       -1.3894859755
 H         -5.1268541746        4.7136419439       -0.8589876206
 C         -4.7845575974        2.8192592067       -1.8029088983
 H         -4.8091482375        3.1930963466       -2.8308581999
 H         -5.7997136272        2.5155367036       -1.5622585638
 C         -3.8583003168        1.6072462566       -1.8040689300
 H         -4.1307268401        0.9614966014       -2.6477856288
 H         -2.8356829089        1.9397343408       -2.0167126387
 H         -5.8348423026        3.7403840428        1.4440604379
 H         -4.6047412307        2.8984949846        2.3930303819
 H         -6.2807647787        1.8038753018        0.1123316576
 H         -6.1047612987        1.2140522410        1.7600659301
 O         -4.2980363728       -0.2022430595        1.5184992538
 C         -3.3390004379       -1.1876893796        1.4372073967
 O         -3.2926818766       -1.9409717066        2.4303645055
 O         -2.0365384689       -0.3549615020       -1.8390586788
 C         -1.5146343894       -2.3793755469        0.2808679915
 C         -0.1300257761       -1.8648508272        0.5974359069
 C          0.5273329235       -2.2624287929        1.7559470944
 C          1.8002549129       -1.7984911721        2.0378197633
 C          2.4410105426       -0.9267391594        1.1755927073
 C          1.7924559329       -0.5222675658        0.0161528525
 C          0.5193715663       -0.9964200198       -0.2681666898
 H          0.0147532139       -0.6720759294       -1.1662978336
 N          2.4175653764        0.3858239383       -0.8545944182
 S          4.0053353537        0.1046046299       -1.3142843956
 O          4.1651084947        0.7980077050       -2.5737443375
 O          4.3177054450       -1.3059274127       -1.3138365064
 C          4.9636034027        0.9421475347       -0.0686481794
 C          5.9520010278        0.2615362193        0.6149033459
 C          6.6928148068        0.9380960133        1.5716670279
 C          6.4342516690        2.2763715340        1.8253563258
 C          5.4397124328        2.9463090073        1.1281793318
 C          4.6963533086        2.2760260757        0.1699916788
 H          3.9172665299        2.7604444223       -0.3948595924
 H          5.2413755792        3.9870149607        1.3282870605
 H          7.0110114236        2.8008745582        2.5707311915
 H          7.4665856431        0.4192388920        2.1144131160
 H          6.1138550399       -0.7802167481        0.3878690243
 H          1.8475431847        0.6350093068       -1.6502106913
 H          3.4316598873       -0.5610332819        1.3912427165
 H          2.2985056467       -2.1164544136        2.9409496069
 H          0.0278983663       -2.9315895175        2.4416348987
 H         -1.8131196431       -3.0527172869        1.0954482827
 C         -1.5157279706       -3.1706229083       -1.0134401882
 C         -0.9659984999       -4.5638583868       -1.0124211493
 C         -2.4409316893       -4.3395110903       -1.1567747073
 H         -2.9007676886       -4.5177797323       -2.1172733468
 H         -3.0777569124       -4.5782958124       -0.3171674135
 H         -0.4080628147       -4.8978445005       -1.8738864539
 H         -0.6029221516       -4.9574372324       -0.0750141963
 H         -1.3458979042       -2.5627124008       -1.8922301402
