  62
        -98.94125872
 C          1.8798165197        0.6017480189        0.0219486531
 C          2.6044601623        0.0997162399        1.1327469240
 C          3.6974443827       -0.8331022424        0.8291745906
 C          3.9015840834       -1.2104688748       -0.4457657260
 C          5.0104604140       -2.1102891508       -0.9067455075
 C          6.2552967044       -1.3005189795       -1.2959405491
 C          6.6751715120       -0.2701431671       -0.2474952387
 H          5.9029086914        0.4991344162       -0.1744736527
 H          7.5798289708        0.2182486590       -0.6159472121
 C          6.9413264471       -0.8548126135        1.1467909708
 H          7.8658766596       -0.4236724423        1.5364168301
 H          7.0925095382       -1.9324354429        1.0736942994
 C          5.8470228896       -0.5657254718        2.1760934365
 H          5.6283020198        0.5051847719        2.1869608758
 H          6.2317006446       -0.8303112072        3.1646258349
 C          4.5290662896       -1.3256056428        1.9799095701
 H          3.9205061657       -1.1732685906        2.8762760591
 H          4.7315828512       -2.3940562902        1.8803499426
 H          6.0469838343       -0.7734510044       -2.2299569481
 H          7.0772290353       -1.9961050003       -1.4748018926
 H          5.2550523440       -2.8137395830       -0.1130373978
 H          4.6619972517       -2.6669475777       -1.7784360971
 O          3.1343123745       -0.7742918933       -1.4754251254
 C          2.1108467213        0.1465488677       -1.2775412792
 O          1.5036530273        0.4527507990       -2.3190601593
 H         -0.5273766166       -0.6829600149        0.6360342629
 C         -1.0334544660       -0.0605347622       -0.0922082605
 C         -0.4954517031        1.1821426494       -0.4071176862
 C         -1.1532238513        1.9704737271       -1.3409585494
 C         -2.3040148579        1.5112634213       -1.9587177675
 C         -2.8259021821        0.2677705004       -1.6566016863
 C         -2.1812101915       -0.5251173254       -0.7147620477
 N         -2.7060184991       -1.7874057003       -0.3933712971
 S         -4.3596599601       -1.9396029407       -0.2011738955
 O         -4.5318881752       -3.0580019360        0.6997754901
 O         -4.9918403300       -2.0694100623       -1.4904679838
 C         -4.8868704855       -0.4233255826        0.5782390562
 C         -5.8075057199        0.3904349210       -0.0496505537
 C         -6.1829436346        1.5753769246        0.5630728138
 C         -5.6306913429        1.9258167937        1.7850347603
 C         -4.7093510719        1.0956147137        2.4053431178
 C         -4.3323896116       -0.0912132516        1.7985643184
 H         -3.6225705275       -0.7603058709        2.2582850091
 H         -4.2808147776        1.3691368601        3.3562196274
 H         -5.9195655169        2.8505404371        2.2590250093
 H         -6.9009112554        2.2213654671        0.0841627880
 H         -6.2090562863        0.0808752618       -1.0008066567
 H         -2.1995303951       -2.2767665650        0.3288228734
 H         -3.7076582230       -0.1108813654       -2.1475167958
 H         -2.7976382831        2.1284576931       -2.6936733201
 H         -0.7499647007        2.9329331387       -1.6083095059
 C          0.7684948055        1.5976037515        0.3024149778
 H          0.5908737281        1.5025220844        1.3870569512
 C          1.1534612110        3.0488241839        0.0575927739
 C          2.5779134413        3.4985734235        0.1798990014
 C          1.9079762680        3.4885962371       -1.1597618906
 H          1.6486611492        4.4367874991       -1.6077669139
 H          2.1906142664        2.7319971570       -1.8745368720
 H          3.3251098489        2.7449765423        0.3832345066
 H          2.7786541477        4.4491358090        0.6509064478
 H          0.4022574008        3.7345651717        0.4369758504
 O          2.3437002300        0.4140306125        2.3252697089
