  62
        -98.93326560
 C         -1.9039393682       -1.5898863448       -0.1998974824
 C         -2.7231918302       -1.1380211593        0.8661706445
 C         -3.9041366232       -0.3303102520        0.5226012013
 C         -4.1471697555       -0.0478580377       -0.7704797479
 C         -5.2735359394        0.7205457197       -1.4301062480
 C         -6.2102636358        1.5938823657       -0.5997197882
 C         -5.5551290760        2.8322339357        0.0114968544
 H         -5.3121084552        3.5293271106       -0.7945677941
 H         -6.2843636902        3.3185022444        0.6631093282
 C         -4.2732927272        2.5802429032        0.8019719918
 H         -3.9102667581        3.5453720406        1.1661639254
 H         -3.5035976008        2.1807050237        0.1376685781
 C         -4.4186364460        1.6538621261        2.0077739918
 H         -3.4752754583        1.6839087697        2.5599101356
 H         -5.2049257369        2.0286699551        2.6659376165
 C         -4.7139897801        0.1804760248        1.6791078743
 H         -4.4234953763       -0.4225328537        2.5443479819
 H         -5.7753966592        0.0179362044        1.5078294648
 H         -6.9967732571        1.9379377276       -1.2769148554
 H         -6.6948327281        0.9993674953        0.1690538536
 H         -5.8743311164       -0.0286776195       -1.9576046919
 H         -4.8013485055        1.3347217716       -2.2037930099
 O         -3.3403070551       -0.5144327370       -1.7656210646
 C         -2.2010747595       -1.2789877185       -1.5251298860
 O         -1.6012042341       -1.5995625633       -2.5660966142
 O         -2.4759570019       -1.4158125384        2.0704401217
 C         -0.6757355938       -2.3768451886        0.2260873511
 C          0.2892542484       -1.4542844167        0.9298074142
 C          0.8921808098       -1.8335163230        2.1240338952
 C          1.7638046710       -0.9822468166        2.7784586655
 C          2.0688167626        0.2544654214        2.2392064520
 C          1.4757831951        0.6413892237        1.0435193059
 C          0.5840148858       -0.2052422864        0.4011997932
 H          0.1201720477        0.1175362121       -0.5201585222
 N          1.7839237849        1.8850080292        0.4453426909
 S          2.7173999408        1.7933927648       -0.9445480384
 O          2.9941495012        3.1620271628       -1.3193956527
 O          2.0496750333        0.9720544714       -1.9190945638
 C          4.2215151818        1.0044938838       -0.3947184258
 C          5.2956637514        1.7911898790       -0.0265153329
 C          6.4340718912        1.1801417749        0.4742807516
 C          6.4737540023       -0.1994628149        0.6092622021
 C          5.3859174002       -0.9750558577        0.2384212999
 C          4.2462202378       -0.3703959087       -0.2681584197
 H          3.3852842653       -0.9427973321       -0.5734787802
 H          5.4163750927       -2.0477028126        0.3414888805
 H          7.3580476139       -0.6742565759        1.0039390552
 H          7.2827368734        1.7805393481        0.7598309773
 H          5.2201902538        2.8593521300       -0.1518252001
 H          2.2114764969        2.5422342370        1.0843452055
 H          2.7522685762        0.9222113498        2.7421546621
 H          2.2131819040       -1.2849796599        3.7115222937
 H          0.6530893699       -2.7967187579        2.5496047024
 H         -1.0330864104       -3.0981385706        0.9805574823
 C         -0.0074808961       -3.1805740606       -0.8761870977
 C          1.1037785393       -2.6459485378       -1.7230132702
 C          1.3895767282       -3.6996967824       -0.6976642738
 H          1.6133230365       -4.6988490947       -1.0392602709
 H          1.9232236823       -3.4041563254        0.1933391107
 H          1.1038258598       -2.9172687306       -2.7678173795
 H          1.4348735391       -1.6318865280       -1.5571650426
 H         -0.7128283050       -3.8337794133       -1.3788004483
