  62
        -98.93472783
 C         -1.8352997527       -0.8046951920        0.4622143260
 C         -2.2918599535        0.0000096750       -0.6088763496
 C         -3.4375896203        0.8850796884       -0.3167670354
 C         -3.9352848191        0.9302961564        0.9302002151
 C         -5.1243077289        1.7124445297        1.4148467935
 C         -6.3965519189        0.8493642962        1.3666133235
 C         -7.1344951527        0.8639444163        0.0284003766
 H         -7.9289507115        0.1164482929        0.0876869106
 H         -7.6106128480        1.8372981686       -0.1074352444
 C         -6.2711058691        0.5670387481       -1.2006640841
 H         -5.5956560279       -0.2627177470       -0.9849203785
 H         -6.9345994107        0.2418609903       -2.0043277487
 C         -5.4679723561        1.7842435223       -1.6834290894
 H         -5.6323251827        1.9231962191       -2.7539499069
 H         -5.8515150789        2.6795063747       -1.1939892846
 C         -3.9476572523        1.6949629596       -1.4772906185
 H         -3.5368898744        2.7076166959       -1.4031635684
 H         -3.4860825088        1.2380430978       -2.3584512826
 H         -6.1158665589       -0.1758899713        1.6216807712
 H         -7.0867279299        1.1992400288        2.1370092327
 H         -4.9217787131        1.9760312880        2.4551582108
 H         -5.2458942185        2.6253327438        0.8392983573
 O         -3.4168935204        0.1929341852        1.9509935839
 C         -2.3659846764       -0.6823930704        1.7483089724
 O         -1.9876171366       -1.2762517427        2.7782617026
 O         -1.7860650654       -0.0131585190       -1.7601405241
 C         -0.6846694500       -1.7827446859        0.2950519344
 C          0.4509628518       -1.1218820613       -0.4474527860
 C          0.9785072724       -1.5982869967       -1.6395121536
 C          2.0194665135       -0.9299394092       -2.2610696203
 C          2.5604178556        0.2154993415       -1.7082637986
 C          2.0475027377        0.6940065865       -0.5087252968
 C          1.0095803568        0.0200891847        0.1152057442
 H          0.6054656953        0.3978388433        1.0471252789
 N          2.5969299874        1.8514067468        0.0682143638
 S          4.2619998244        2.0060195706        0.0980169873
 O          4.5418281122        2.8558509264        1.2344381777
 O          4.7294894175        2.4893617686       -1.1772558350
 C          4.8830364986        0.3576114980        0.3828696012
 C          5.6846010316       -0.2514903520       -0.5607811230
 C          6.1293910710       -1.5433913492       -0.3292252082
 C          5.7640410203       -2.2011349489        0.8347894790
 C          4.9610424806       -1.5741554737        1.7755527912
 C          4.5145975152       -0.2824565970        1.5497114921
 H          3.8935534991        0.2343065333        2.2640703676
 H          4.6779639517       -2.0867713614        2.6809948307
 H          6.1069233277       -3.2081372250        1.0125483840
 H          6.7552969443       -2.0326022655       -1.0579475874
 H          5.9433884929        0.2959064722       -1.4523965916
 H          2.1851516828        2.1085013444        0.9525519696
 H          3.3564609086        0.7574899939       -2.1924387309
 H          2.4106276009       -1.3029787052       -3.1951855423
 H          0.5560373651       -2.4761557594       -2.0991603080
 H         -0.3372575917       -1.9841045047        1.3221089137
 C         -1.0906530456       -3.1265532957       -0.2918932081
 C         -2.4756621693       -3.6657318105       -0.0967789134
 C         -2.0199297702       -3.2468208660       -1.4606150276
 H         -1.8252072952       -4.0172090430       -2.1924891080
 H         -2.4146567980       -2.3360431080       -1.8813890005
 H         -2.5918130952       -4.7192652699        0.1088589861
 H         -3.1883606667       -3.0402694755        0.4215778847
 H         -0.2843071620       -3.8510405214       -0.2342613265
