  62
        -98.94263030
 C          2.1402094385        0.8829910211        0.1675721379
 C          2.6361929668       -0.0102143061        1.1457771327
 C          2.9784667634       -1.3576060469        0.6724269474
 C          2.7624875805       -1.6750479613       -0.6174984819
 C          3.0937557733       -2.9998427989       -1.2399835940
 C          4.5111604832       -3.0007745703       -1.8294227824
 C          5.5782962928       -2.4742908718       -0.8697266851
 H          6.5403492109       -2.5500520976       -1.3808075177
 H          5.3957362158       -1.4136594598       -0.6826014016
 C          5.6504036556       -3.2201996290        0.4699856346
 H          5.1517829890       -4.1861423015        0.3830165554
 H          6.6984916214       -3.4158482099        0.7055568155
 C          5.0636397397       -2.4522686663        1.6557728909
 H          5.3609505170       -2.9655511207        2.5739990686
 H          5.4915126308       -1.4472357468        1.6889133314
 C          3.5350782802       -2.3255646427        1.6788358033
 H          3.2484347014       -1.9342809319        2.6595418678
 H          3.0812476395       -3.3113390547        1.5568904612
 H          4.7585985057       -4.0206778673       -2.1292394629
 H          4.5135805495       -2.3732121949       -2.7235854559
 H          2.3741370406       -3.1908091914       -2.0382206908
 H          3.0005229533       -3.7811713601       -0.4879841150
 O          2.2519098277       -0.8003916715       -1.5220032404
 C          1.9276187493        0.4974063511       -1.1565579898
 O          1.4699364982        1.1940359668       -2.0824092992
 O          2.7735865036        0.3016933630        2.3603770533
 C          1.7424901880        2.2878060282        0.5851852359
 C          0.2734529469        2.4926281133        0.3062495295
 C         -0.2441364055        3.6138065621       -0.3281518606
 C         -1.5992092441        3.7058453942       -0.5988520144
 C         -2.4659297771        2.6891478778       -0.2428710559
 C         -1.9602458703        1.5730850636        0.4081435401
 C         -0.6071996627        1.4872944632        0.6867504233
 H         -0.2197046918        0.6055396815        1.1846175540
 N         -2.8406539924        0.5165926177        0.7590650601
 S         -3.2629498628       -0.4887365192       -0.5376553327
 O         -2.3235647641       -1.5901158889       -0.6180476532
 O         -3.4279000457        0.3149119489       -1.7206321925
 C         -4.8482790562       -1.0916476643        0.0108254730
 C         -4.9436783615       -2.3374357405        0.5988264524
 C         -6.1789442753       -2.7706175853        1.0552203053
 C         -7.2901367267       -1.9525774473        0.9206086410
 C         -7.1781647532       -0.7034166307        0.3281151882
 C         -5.9463893846       -0.2656482421       -0.1306728692
 H         -5.8122845324        0.6925867988       -0.6043544880
 H         -8.0447594263       -0.0707440230        0.2234521595
 H         -8.2496864425       -2.2916074926        1.2778007877
 H         -6.2685742473       -3.7422592354        1.5138163574
 H         -4.0546071524       -2.9425272863        0.6757393912
 H         -2.4278563389       -0.0800649040        1.4654639106
 H         -3.5166188722        2.7377165499       -0.4755258933
 H         -1.9825656789        4.5792654319       -1.1041327189
 H          0.4167555169        4.4106322632       -0.6279317581
 H          1.8975244540        2.3258721886        1.6739937015
 C          2.6360454139        3.3176947528       -0.0721990861
 C          2.8977642738        4.6307575389        0.6016129346
 C          3.9803387496        3.5976971537        0.5277182848
 H          4.8150875926        3.7681425789       -0.1353984220
 H          4.2411475141        3.0622640410        1.4290209446
 H          2.9923018028        5.5144224921       -0.0111158574
 H          2.4278580258        4.8036113758        1.5578449170
 H          2.5636031118        3.2987128593       -1.1540097925
