  62
        -98.93884799
 C         -2.4608662697       -0.9422037202        0.3569988102
 C         -2.8478915099        0.2152876001        1.0844074796
 C         -4.2403691299        0.6487088798        0.9344989094
 C         -5.0773407898       -0.0633712607        0.1587245797
 C         -6.5386019699        0.2174232190       -0.0644656804
 C         -6.8175428400        1.2611871884       -1.1543695209
 C         -6.4802470602        2.7031811587       -0.7737691317
 H         -6.9239717103        3.3479406482       -1.5348908220
 H         -6.9549017302        2.9474783491        0.1770096382
 C         -4.9762378702        2.9997587189       -0.6917973318
 H         -4.7599372904        3.9350715487       -1.2128921823
 H         -4.4200143901        2.2121344987       -1.2054876914
 C         -4.4331211303        3.1388393097        0.7305326481
 H         -3.3549537203        3.3094119798        0.6705725081
 H         -4.8853475504        4.0084812299        1.2125931377
 C         -4.6684455201        1.9109931201        1.6200325387
 H         -4.0628997001        2.0199940506        2.5231888287
 H         -5.7180918201        1.8500443301        1.9072469688
 H         -7.8831323900        1.2093363582       -1.3891890009
 H         -6.2643742900        0.9830338181       -2.0542659408
 H         -6.9923370797       -0.7281463312       -0.3688725000
 H         -6.9958318899        0.5369156794        0.8724774294
 O         -4.6756568197       -1.1718132210       -0.5132219497
 C         -3.3655281896       -1.6273522208       -0.4551918095
 O         -3.1671303995       -2.6344800811       -1.1634771390
 H          1.2964057702       -0.0421577795        0.7510530997
 C          1.0683383302       -0.2915379701       -0.2752332101
 C         -0.1106227397       -0.9528605104       -0.5865463898
 C         -0.3848174497       -1.2403083711       -1.9194163597
 C          0.5074413303       -0.8740425215       -2.9106696898
 C          1.6977478902       -0.2436088612       -2.5935222501
 C          1.9799386702        0.0491021295       -1.2645933803
 N          3.1744224101        0.6907968899       -0.9024274806
 S          3.9078772701        0.2238672407        0.5469872696
 O          3.7981592903       -1.2067468592        0.7174259203
 O          3.3809409700        1.0354834812        1.6156699192
 C          5.6018647601        0.6764710308        0.2222536794
 C          6.0075687399        1.9762640609        0.4588315088
 C          7.3176850598        2.3300477510        0.1771866386
 C          8.1945156300        1.3846937808       -0.3341150309
 C          7.7731197001        0.0836851607       -0.5648320803
 C          6.4642083502       -0.2767862694       -0.2862553201
 H          6.0949648703       -1.2781469795       -0.4394759196
 H          8.4578707102       -0.6498986794       -0.9588055199
 H          9.2137632499        1.6627381609       -0.5509756611
 H          7.6500035797        3.3394617211        0.3583978681
 H          5.2934429198        2.6731702010        0.8658506384
 H          3.8378370401        0.7518967096       -1.6625523706
 H          2.4008319402        0.0228526486       -3.3680875303
 H          0.2811221903       -1.0994016420       -3.9420587097
 H         -1.2971439496       -1.7604434913       -2.1674581094
 C         -1.0241004097       -1.3980790300        0.5309718304
 H         -0.6760574397       -0.9029765295        1.4487753402
 C         -0.8784168295       -2.8985297399        0.7158361112
 C          0.4064548106       -3.4383952894        1.2661190314
 C         -0.8397532394       -3.4732682392        2.0980963614
 H         -1.3166823093       -4.4258947891        2.2736325619
 H         -0.9177582695       -2.7855548388        2.9278517111
 H          1.1828315905       -2.7320302092        1.5238450011
 H          0.7828908307       -4.3682316796        0.8676731619
 H         -1.3765587594       -3.4732332003       -0.0542040186
 O         -2.0631936300        0.8509090405        1.8396227593
