  62
        -98.93877318
 C          1.9512231659        1.3056908601       -0.0519643798
 C          2.6028705246        0.6665956884        1.0257486469
 C          3.8142765314       -0.1148151163        0.7085555148
 C          4.2134650327       -0.1941760893       -0.5747638580
 C          5.3844826336       -0.9523681609       -1.1415897650
 C          5.1266717420       -2.4650617086       -1.2287284359
 C          4.4743138526       -3.0772796520        0.0079751324
 H          3.5226205277       -2.5763539232        0.1956684373
 H          4.2495470990       -4.1230415383       -0.2184089163
 C          5.3252593854       -3.0456760285        1.2754654414
 H          6.2622963006       -3.5754186184        1.0903146844
 H          4.7796844940       -3.5971771972        2.0456404617
 C          5.6521001481       -1.6565696816        1.8282869923
 H          6.4495188764       -1.1851003175        1.2602661046
 H          6.0340919114       -1.7932388590        2.8442192361
 C          4.4559709107       -0.7161304980        1.9361211679
 H          3.6510932311       -1.2215684519        2.4823252193
 H          4.7388363297        0.1357722980        2.5662904391
 H          4.4639070481       -2.6465648893       -2.0785296659
 H          6.0754616037       -2.9659329245       -1.4282892418
 H          5.5450141077       -0.5694092937       -2.1518217316
 H          6.2796468466       -0.7449583469       -0.5628520409
 O          3.5322749297        0.4134273499       -1.5882077290
 C          2.3965409849        1.1705476079       -1.3664296384
 O          1.8909854245        1.6575418225       -2.3946515622
 O          2.1877922433        0.7345070534        2.2157248920
 C          0.7119102616        2.1378844571        0.2241328021
 C         -0.4783908509        1.5288877428       -0.4749514290
 C         -1.3275733164        2.2385285980       -1.3126355564
 C         -2.3907851604        1.6042162423       -1.9334743178
 C         -2.6384687247        0.2609046021       -1.7233862279
 C         -1.8088572471       -0.4531285103       -0.8666610603
 C         -0.7443425195        0.1831793528       -0.2482199639
 H         -0.0953953465       -0.3755006505        0.4149689679
 N         -2.0667064641       -1.8124972076       -0.6250668010
 S         -3.6526683424       -2.2779360656       -0.3628064786
 O         -3.5676003416       -3.4520443770        0.4775179234
 O         -4.3213549118       -2.4593455056       -1.6272594657
 C         -4.4045913048       -0.9247436099        0.5250716386
 C         -3.8439551583       -0.5402070941        1.7270044750
 C         -4.3994557393        0.5263371314        2.4146669517
 C         -5.5014832636        1.1861538461        1.8921520448
 C         -6.0567461292        0.7838265037        0.6876512651
 C         -5.5034396187       -0.2806976891       -0.0058997305
 H         -5.9000962070       -0.6240458795       -0.9474876704
 H         -6.9148750626        1.2971638711        0.2848681141
 H         -5.9288406154        2.0184046693        2.4287127607
 H         -3.9680193832        0.8401181383        3.3517790454
 H         -2.9893520372       -1.0749559616        2.1100099826
 H         -1.4403921953       -2.2400395876        0.0405094934
 H         -3.4502876288       -0.2500675637       -2.2151063244
 H         -3.0338767370        2.1645973324       -2.5945298561
 H         -1.1508908039        3.2859217025       -1.4916513643
 H          0.5460790002        2.0593021979        1.3088382209
 C          0.9547056299        3.5898107641       -0.1273280407
 C          0.1883770997        4.6708538608        0.5727472449
 C          1.6428483404        4.4698571080        0.8713604951
 H          2.3518590599        5.2005470687        0.5119729339
 H          1.9167050358        4.0268514754        1.8178867563
 H         -0.1014219496        5.5450486220        0.0097957461
 H         -0.5282628891        4.3696800542        1.3214965045
 H          1.2057110446        3.7301133265       -1.1725337680
