  62
        -98.93421070
 C          2.4146281000        0.9218246100        0.0930154096
 C          2.6017623100       -0.4774671400        0.1658678295
 C          3.9707963599       -0.9366757001        0.4667943394
 C          4.9390968300       -0.0244801002        0.6612153395
 C          6.3986933400       -0.2783714703        0.9195687095
 C          7.1941896000       -0.2641561802       -0.3969396905
 C          7.2630226699       -1.6073408301       -1.1223659406
 H          7.9082773099       -2.2857445402       -0.5603717907
 H          7.7377792699       -1.4300219401       -2.0901162106
 C          5.9153522199       -2.2954323000       -1.3549110807
 H          6.0404977198       -3.0099916700       -2.1708503708
 H          5.1773312499       -1.5600721600       -1.6808211606
 C          5.3971471298       -3.0417231001       -0.1165109408
 H          6.2016522598       -3.1202003802        0.6144716592
 H          5.1313734298       -4.0634668701       -0.3953959309
 C          4.1551733798       -2.4276665001        0.5465488393
 H          4.1281554998       -2.7256669402        1.6000056792
 H          3.2530344898       -2.8406352300        0.0841123892
 H          8.2156657200        0.0583756397       -0.1855176305
 H          6.7437580600        0.4857845299       -1.0522148804
 H          6.5386911199       -1.2131448904        1.4540077394
 H          6.7507222900        0.5430457296        1.5469579796
 O          4.7099887601        1.3167342098        0.5929777596
 C          3.4563694501        1.8229672899        0.3080591797
 O          3.3943818002        3.0691026599        0.2817510598
 O          1.6739426799       -1.3091970199       -0.0166864506
 C          1.0441202601        1.4869970001       -0.2298649004
 C          0.0197079400        0.9864861901        0.7592459496
 C          0.2949824200        1.0831932199        2.1213526196
 C         -0.6217295900        0.6514908299        3.0595943095
 C         -1.8402058300        0.1290760200        2.6621192495
 C         -2.1253057900        0.0291195602        1.3061617095
 C         -1.1982857000        0.4573740402        0.3653261095
 H         -1.4487013600        0.3680803703       -0.6782004305
 N         -3.3420388900       -0.5184387097        0.8689282394
 S         -4.0551374900        0.1051380905       -0.5278486405
 O         -3.4653425900       -0.5247525695       -1.6818798206
 O         -4.0197743299        1.5501777605       -0.4991663104
 C         -5.7284028700       -0.4756230495       -0.3163460806
 C         -6.6694363200        0.3627339605        0.2512088395
 C         -7.9592850200       -0.1078438494        0.4407292094
 C         -8.2839334601       -1.4025039494        0.0643421993
 C         -7.3290828901       -2.2318702694       -0.5051957808
 C         -6.0378425101       -1.7673436994       -0.6985270807
 H         -5.2651249701       -2.3717123794       -1.1445182608
 H         -7.5859271302       -3.2367491593       -0.7993382809
 H         -9.2882081001       -1.7666054593        0.2131403092
 H         -8.7046241800        0.5355262906        0.8797921195
 H         -6.3740454899        1.3643465105        0.5195637096
 H         -4.0144455601       -0.6313398198        1.6151301894
 H         -2.5583376700       -0.2058721600        3.3951111394
 H         -0.3904822500        0.7298032198        4.1114356395
 H          1.2439218301        1.4999363899        2.4323421896
 H          1.1270711801        2.5776229401       -0.1070922903
 C          0.6844410901        1.1890060903       -1.6705254404
 C         -0.2554922699        2.0880348304       -2.4140249503
 C          1.2039596901        2.0829255304       -2.7542835103
 H          1.5148505201        1.6364642404       -3.6868595603
 H          1.8033318302        2.9296505703       -2.4521510202
 H         -0.9534086199        1.6418705005       -3.1072309304
 H         -0.6548656598        2.9405320904       -1.8848294002
 H          0.6396517400        0.1251388703       -1.8771554205
