  62
        -98.94601834
 C          1.7073670892        1.1969884008       -0.8019433797
 C          2.8622440994        0.6616922014       -0.1730830597
 C          3.2115256602       -0.7199442784       -0.5118218597
 C          2.4670312907       -1.3922681987       -1.4075172699
 C          2.6727214115       -2.8169961486       -1.8430222100
 C          2.0189439520       -3.8339287890       -0.8971417701
 C          2.7412566420       -4.0321646287        0.4360960800
 H          2.3217652724       -4.9289109590        0.8966868799
 H          3.7997647321       -4.2223805181        0.2529453500
 C          2.5867484412       -2.8606220989        1.4165184000
 H          2.3524892014       -3.2491129091        2.4110218800
 H          1.7363228009       -2.2424412293        1.1149195200
 C          3.8301286507       -1.9809337982        1.5580492802
 H          3.5898504202       -1.1614808784        2.2406641303
 H          4.6406646710       -2.5641294678        2.0018159102
 C          4.3313900705       -1.3690331478        0.2433210303
 H          5.0650327201       -0.5954517574        0.4837288504
 H          4.8127807410       -2.1318525875       -0.3681965997
 H          0.9897384318       -3.5192010196       -0.7037344702
 H          1.9854882126       -4.7944813790       -1.4170689402
 H          3.7383722316       -3.0293218880       -1.9331366899
 H          2.2114267017       -2.9143199088       -2.8281326000
 O          1.4127159804       -0.8255029293       -2.0424011599
 C          0.9641084997        0.4457160305       -1.7109415399
 O         -0.0789178804        0.7664019399       -2.3166612899
 O          3.5661831490        1.3153198617        0.6440535904
 C          1.2629923084        2.5665512705       -0.3140796197
 C          0.4115689484        2.3721274300        0.9206417302
 C          0.6991328379        3.0287718800        2.1100395903
 C         -0.0385637520        2.7649863395        3.2511810902
 C         -1.0442693015        1.8164992390        3.2344667301
 C         -1.3423364310        1.1557895089        2.0461762200
 C         -0.6451841611        1.4727563394        0.8916859101
 H         -0.8897335707        0.9689436793       -0.0279255100
 N         -2.3377962405        0.1705559384        2.0051379698
 S         -2.1852019696       -1.2260832415        1.0790954497
 O         -2.6992412691       -2.2806904818        1.9315139796
 O         -0.8416472195       -1.4068554307        0.5881463798
 C         -3.3580268697       -0.9595897220       -0.2346015504
 C         -2.9543847998       -0.5280239317       -1.4809288303
 C         -3.9174505098       -0.3104105022       -2.4559137704
 C         -5.2564398897       -0.5255440429       -2.1723858405
 C         -5.6459433996       -0.9619818032       -0.9145667106
 C         -4.6903928896       -1.1805923928        0.0629331995
 H         -4.9460629695       -1.5334463930        1.0482670995
 H         -6.6877153595       -1.1316323838       -0.6950575007
 H         -5.9984181798       -0.3537476533       -2.9362440106
 H         -3.6058685399        0.0293690581       -3.4308733803
 H         -1.9083863899       -0.3601044911       -1.6887771002
 H         -2.7479237205       -0.0422513119        2.9028042098
 H         -1.5907982715        1.5783437686        4.1345626400
 H          0.1916926376        3.2811542696        4.1709275503
 H          1.5213129875        3.7279609005        2.1450697404
 H          2.1825150081        3.0828322310       -0.0044231996
 C          0.5530512180        3.4242738002       -1.3393441897
 C          0.5640214472        4.9133592302       -1.1708943196
 C          1.3599371376        4.2770872207       -2.2697910395
 H          1.0208358777        4.3865641606       -3.2886246196
 H          2.4351773176        4.2459791513       -2.1694509894
 H         -0.3248200131        5.4658804597       -1.4332641496
 H          1.1015720069        5.3191943004       -0.3274150495
 H         -0.3439132617        2.9688479997       -1.7368210698
