  62
        -98.93544302
 C          1.7376690450        1.0539989830        0.6461981398
 C          2.0149190295       -0.3322342032        0.7573498226
 C          3.4000132244       -0.7746166652        0.5094097296
 C          4.3254861377        0.1528379609        0.2023825894
 C          5.7836838375       -0.0478005461       -0.1151063737
 C          6.0132809283       -0.6040543086       -1.5293214385
 C          5.0798303916       -1.7432031438       -1.9300710021
 H          5.2718709099       -1.9748776560       -2.9811032437
 H          4.0458196438       -1.4010119779       -1.8579952835
 C          5.2461290203       -3.0327510157       -1.1296071183
 H          6.2748878697       -3.3860597418       -1.2295085131
 H          4.5925384147       -3.7818675795       -1.5837019078
 C          4.9036647400       -2.9457672231        0.3593888691
 H          5.7052377745       -2.4726582961        0.9202130380
 H          4.8257696449       -3.9702298921        0.7349236590
 C          3.5733998765       -2.2659462669        0.6679474549
 H          3.3030640200       -2.4834389052        1.7081584707
 H          2.7843718567       -2.7281131120        0.0639675602
 H          7.0503632086       -0.9353876981       -1.6052580097
 H          5.8669562071        0.2121519674       -2.2410685560
 H          6.2436453174       -0.6877906357        0.6320530619
 H          6.2562410121        0.9346646507       -0.0473323669
 O          4.0149204896        1.4751031502        0.1009490688
 C          2.7368109932        1.9639435462        0.3031246197
 O          2.6491016880        3.1986776628        0.1482727787
 O          1.1331525018       -1.1813469257        1.0589716373
 C          0.3062970756        1.4793762669        0.9169765362
 C         -0.4928908853        1.6376098535       -0.3544818373
 C         -0.1252918254        2.5466081050       -1.3407964821
 C         -0.8985892367        2.6906134897       -2.4780454117
 C         -2.0582289725        1.9531105673       -2.6429332484
 C         -2.4344576471        1.0430683206       -1.6624288021
 C         -1.6419885510        0.8820322900       -0.5346069232
 H         -1.9296476692        0.1620015998        0.2160373783
 N         -3.5962275276        0.2725073828       -1.8017363614
 S         -4.5360482798       -0.0870948188       -0.4643386374
 O         -5.8406134912       -0.3899245005       -1.0132172227
 O         -4.4903832054        0.9692392040        0.5191309983
 C         -3.8261449545       -1.5809531870        0.1921064527
 C         -3.5422087440       -1.6678391362        1.5402397899
 C         -3.0112172991       -2.8463016145        2.0397492603
 C         -2.7758511257       -3.9123133583        1.1859227943
 C         -3.0697139946       -3.8104523392       -0.1653988721
 C         -3.6018893937       -2.6354166144       -0.6704479077
 H         -3.8441651916       -2.5198674760       -1.7137319491
 H         -2.8833157114       -4.6423210547       -0.8254960411
 H         -2.3583388777       -4.8266935336        1.5768971091
 H         -2.7788374657       -2.9259447475        3.0896830471
 H         -3.7336043659       -0.8117686773        2.1685404744
 H         -4.1564091427        0.4846709251       -2.6142153506
 H         -2.6679036898        2.0793513972       -3.5248550600
 H         -0.6027054839        3.3960884588       -3.2399984741
 H          0.7699073588        3.1343307674       -1.2068003605
 H         -0.1379015012        0.6457499757        1.4781545197
 C          0.1839016599        2.7375628283        1.7564157177
 C         -1.1434269859        3.0622463229        2.3720609356
 C         -0.0027991613        2.6196646838        3.2376749672
 H          0.4729377180        3.3486555489        3.8764642984
 H         -0.0388290354        1.6260292306        3.6600765659
 H         -1.4491846759        4.0965473013        2.4152438373
 H         -1.9597751319        2.3756919849        2.1994253995
 H          0.7834158469        3.5603419629        1.3896569354
