  62
        -98.93942608
 C          2.0710696708        0.2559566866       -0.3432855527
 C          2.8722016872       -0.8038996184        0.1498867596
 C          4.2129165934       -0.4237591358        0.6268076233
 C          4.5813295509        0.8690856916        0.6182417562
 C          5.9270579624        1.3832524673        1.0386929599
 C          6.8937683319        1.4507158313       -0.1518035232
 C          6.9424276730        0.1673476334       -0.9810137459
 H          5.9749596766        0.0208036905       -1.4668812560
 H          7.6791126517        0.3196663865       -1.7728822366
 C          7.3037113856       -1.0921219761       -0.1811932319
 H          7.7705337183       -0.8097385841        0.7630922400
 H          8.0398593094       -1.6666295996       -0.7474510153
 C          6.1254286409       -2.0277546962        0.0956606074
 H          5.5986951061       -2.2387136362       -0.8384482424
 H          6.5247247376       -2.9753281575        0.4668670248
 C          5.1029934307       -1.5282940443        1.1242033971
 H          4.4379789211       -2.3632486315        1.3632444899
 H          5.6181707038       -1.2262896028        2.0381612412
 H          7.8917055226        1.6801507146        0.2262696575
 H          6.5816051987        2.2687811198       -0.8052418560
 H          5.7981908103        2.3866709815        1.4480032499
 H          6.3324411953        0.7348861373        1.8130511106
 O          3.7703006609        1.8644596866        0.1756272784
 C          2.5114508029        1.5823787855       -0.3246379823
 O          1.8836124483        2.5851725601       -0.7219675863
 H         -1.5796300715        1.5547398088       -0.8261320682
 C         -1.4588777527        0.9463804640        0.0574077718
 C         -0.3587191940        0.1120713543        0.1879012597
 C         -0.2317710081       -0.6544932917        1.3433700365
 C         -1.1802629595       -0.5751104717        2.3455548793
 C         -2.2824597683        0.2514663173        2.2074688834
 C         -2.4230788916        1.0133835978        1.0548043146
 N         -3.5417654342        1.8522764353        0.8704443059
 S         -4.5582678540        1.4977728834       -0.4130557285
 O         -3.8379246342        1.6195341661       -1.6532730827
 O         -5.7054162267        2.3594665590       -0.2401358559
 C         -5.0267960458       -0.2009527933       -0.1336598449
 C         -6.1803388712       -0.4710589172        0.5764468434
 C         -6.5001738320       -1.7894473178        0.8584225192
 C         -5.6592450792       -2.8090140273        0.4380757546
 C         -4.5030557567       -2.5212763602       -0.2710439411
 C         -4.1809603391       -1.2049369102       -0.5608121781
 H         -3.2935372328       -0.9443215341       -1.1133708731
 H         -3.8476160989       -3.3121166071       -0.5992835619
 H         -5.9061575103       -3.8346712213        0.6624383738
 H         -7.4002952227       -2.0172776307        1.4063420452
 H         -6.8065759164        0.3524567627        0.8797594826
 H         -4.0942039192        1.9780516972        1.7075973715
 H         -3.0257306362        0.3108888187        2.9883544965
 H         -1.0663280574       -1.1698926236        3.2389572563
 H          0.6152781991       -1.3160163006        1.4402214861
 C          0.6752092032        0.0483053007       -0.9079321042
 H          0.5014081347        0.9118994967       -1.5695812408
 C          0.5548714528       -1.2115321002       -1.7580748919
 C         -0.4038578411       -2.3183578643       -1.4463572785
 C         -0.6662358223       -1.4092344876       -2.6069249366
 H         -0.5442796555       -1.7945105150       -3.6081135462
 H         -1.4541360950       -0.6742141846       -2.5175492310
 H         -1.0237536893       -2.2237096000       -0.5684659775
 H         -0.0798066468       -3.3284903449       -1.6448353113
 H          1.5020224994       -1.5045582683       -2.1968658227
 O          2.5078041736       -2.0061309589        0.2005305043
