  62
        -98.94074952
 C         -2.0258688103       -1.3368106895        0.3682151612
 C         -2.5082373402       -0.6328381301       -0.7632550992
 C         -3.7122552400        0.1855500002       -0.5425734097
 C         -4.2684631100        0.2349160410        0.6805866703
 C         -5.4584497099        1.0703789414        1.0520025698
 C         -5.0273990297        2.4525941616        1.5623472290
 C         -4.0174684896        3.1584001110        0.6570334286
 H         -3.8098267294        4.1348061212        1.1004542680
 H         -3.0789807496        2.5986766908        0.6621747789
 C         -4.4854355495        3.3447800602       -0.7931076215
 H         -5.5687406596        3.2319618703       -0.8499520914
 H         -4.2485516394        4.3630301200       -1.1088835021
 C         -3.8240768097        2.4015465695       -1.7999908110
 H         -2.7375921897        2.4434842594       -1.6844526910
 H         -4.0583580597        2.7606806989       -2.8056709212
 C         -4.2605098999        0.9328750696       -1.7254289601
 H         -5.3503848999        0.8709864698       -1.7505098701
 H         -3.8655907500        0.4259185090       -2.6107652598
 H         -5.9178375196        3.0745045018        1.6700947787
 H         -4.5758526897        2.3321181321        2.5499523891
 H         -6.1064831699        1.1772831310        0.1843890398
 H         -6.0068456699        0.5562255920        1.8431719201
 O         -3.7656651901       -0.4379555784        1.7472697507
 C         -2.6258335102       -1.2162568587        1.6240404411
 O         -2.2447021203       -1.7360362481        2.6922415014
 O         -1.9740019602       -0.6743049109       -1.9004231892
 C         -0.7761348404       -2.1985951698        0.2973749017
 C          0.3125683297       -1.4583778404       -0.4409295588
 C          0.9420023196       -1.9389758011       -1.5806262085
 C          1.9278501897       -1.1926294516       -2.2035314789
 C          2.3110038799        0.0380438786       -1.7046470297
 C          1.6948443500        0.5235115294       -0.5575875499
 C          0.7143985999       -0.2290411301        0.0693195405
 H          0.2304076800        0.1528963805        0.9607422103
 N          2.0807838302        1.7701317996       -0.0366272107
 S          3.7135003403        2.1245989594        0.0399834491
 O          3.8432541304        3.0717755500        1.1253534985
 O          4.1745421603        2.5789848586       -1.2481743112
 C          4.5106534800        0.5837830295        0.4574819000
 C          5.4365196699        0.0296296889       -0.4025103297
 C          6.0224143498       -1.1807273310       -0.0672428590
 C          5.6706653997       -1.8142643603        1.1142595914
 C          4.7405390898       -1.2432205496        1.9697131811
 C          4.1536521500       -0.0324315497        1.6406675504
 H          3.4318367000        0.4401659808        2.2877971401
 H          4.4678502097       -1.7370406990        2.8886876913
 H          6.1235309495       -2.7584091402        1.3726142219
 H          6.7472880197       -1.6262251015       -0.7292020087
 H          5.6787210200        0.5549704483       -1.3119245100
 H          1.6063776003        2.0275388902        0.8156782592
 H          3.0610528700        0.6392676882       -2.1923424000
 H          2.3990111797       -1.5717667422       -3.0974073387
 H          0.6408346895       -2.8842095613       -2.0004260179
 H         -0.4515762604       -2.3088061192        1.3455732217
 C         -1.0145046706       -3.6066781300       -0.2268789475
 C         -2.3416897907       -4.2805000697       -0.0498998071
 C         -1.8775007607       -3.8873451206       -1.4185948373
 H         -1.5725172408       -4.6697728610       -2.0982031369
 H         -2.3491242805       -3.0478496208       -1.9035265078
 H         -2.3539839809       -5.3281740096        0.2109169835
 H         -3.1371413606       -3.7089097193        0.4064024926
 H         -0.1393874807       -4.2364844101       -0.1003179271
