  62
        -98.94342840
 C         -1.8896553624       -0.6747351536       -0.7444592779
 C         -2.2134376848       -0.0946303928        0.5060200021
 C         -3.6409951192       -0.0889310433        0.8509733256
 C         -4.5362431490       -0.6375477505        0.0095803977
 C         -6.0206062969       -0.7364338649        0.2365033909
 C         -6.7989741648        0.5273497468       -0.1540338611
 C         -6.6216243669        1.7176590171        0.7893613147
 H         -7.3834325745        2.4531632886        0.5232088235
 H         -6.8198326361        1.4002705711        1.8136032633
 C         -5.2418130643        2.3859193904        0.7127080416
 H         -4.7407678229        2.0820651977       -0.2092109741
 H         -5.3649733912        3.4703406789        0.6674554334
 C         -4.3238883093        2.0831990029        1.8970650541
 H         -3.3644791666        2.5760015388        1.7215050293
 H         -4.7549644951        2.4997217151        2.8101600306
 C         -4.0541307935        0.5896073078        2.1220711562
 H         -4.9362433976        0.1071329713        2.5425917867
 H         -3.2288768325        0.4923757971        2.8317102691
 H         -6.5085201258        0.8175788904       -1.1663878766
 H         -7.8587236034        0.2627837306       -0.1757723209
 H         -6.3746731666       -1.5633643679       -0.3829448936
 H         -6.2162505807       -0.9772827396        1.2818235019
 O         -4.1792899207       -1.2051888711       -1.1740665312
 C         -2.8562257735       -1.2238273972       -1.5858375928
 O         -2.6707524765       -1.7589345708       -2.6984922595
 O         -1.3595024418        0.3869616920        1.2939608784
 C         -0.4440648501       -0.7172058964       -1.2025352226
 C          0.4102949945       -1.4619866834       -0.2050047623
 C         -0.0768888285       -2.6335607748        0.3689418329
 C          0.6806435272       -3.3429498799        1.2798009576
 C          1.9507091038       -2.9128192683        1.6215772604
 C          2.4546703588       -1.7557653903        1.0419781080
 C          1.6835215186       -1.0351576954        0.1394633447
 H          2.0933351288       -0.1402599100       -0.2980459595
 N          3.7347043789       -1.2892314409        1.3727571066
 S          4.7207916110       -0.6258354415        0.1971033389
 O          4.5096629830       -1.2445860637       -1.0907050118
 O          6.0583135652       -0.7373228545        0.7405289669
 C          4.2741417367        1.0963578152        0.1355650941
 C          3.9447025691        1.7496848974        1.3065094060
 C          3.6438634272        3.1013751310        1.2558465929
 C          3.6856021699        3.7758677382        0.0449626206
 C          4.0247350200        3.1069853476       -1.1208568951
 C          4.3224635757        1.7536717714       -1.0778120452
 H          4.5795315223        1.1921355571       -1.9619973368
 H          4.0570413256        3.6327471436       -2.0621240301
 H          3.4512456069        4.8281518928        0.0092433073
 H          3.3763453189        3.6240328204        2.1601043950
 H          3.9179605049        1.1958127723        2.2299332309
 H          4.2531484672       -1.8758220413        2.0100369965
 H          2.5455933824       -3.4677087069        2.3311210824
 H          0.2830444638       -4.2437329076        1.7230017320
 H         -1.0651475801       -2.9780409510        0.0950709547
 H         -0.4372235744       -1.2889998953       -2.1428957233
 C          0.0474174103        0.6882380171       -1.4839360336
 C          1.0828315866        0.9363084348       -2.5378916038
 C         -0.3399215653        1.3423573913       -2.7749157187
 H         -0.5843916061        2.3938078252       -2.7683390537
 H         -0.9325517248        0.7598586521       -3.4657458990
 H          1.8136378418        1.7119503365       -2.3653655648
 H          1.4671118535        0.0814056925       -3.0743121456
 H          0.0654255423        1.3063601920       -0.5934819298
