  62
        -98.94291710
 C          2.6493968892        1.1861433691        0.2506243209
 C          2.7728495166        0.3308185988       -0.8709876825
 C          3.7783554255       -0.7373608996       -0.7587604140
 C          4.5222572958       -0.8387314169        0.3568524166
 C          5.5329575047       -1.9151126485        0.6238497818
 C          4.8931093412       -3.1098943981        1.3450376047
 C          3.6009266354       -3.6048261393        0.6950855709
 H          3.2577488071       -4.4675122127        1.2701553382
 H          2.8350072747       -2.8313240572        0.7891380658
 C          3.7436401040       -3.9993383752       -0.7816064770
 H          4.7950531227       -4.1601000116       -1.0225057085
 H          3.2256971347       -4.9471377220       -0.9426211670
 C          3.1470428757       -2.9932294326       -1.7676739630
 H          3.1054413582       -3.4660715012       -2.7526632883
 H          2.1205409666       -2.7578253369       -1.4744948441
 C          3.9179600972       -1.6762686003       -1.9243419266
 H          4.9700026388       -1.8870616351       -2.1259319403
 H          3.5024131022       -1.1483775182       -2.7877310746
 H          5.6206894467       -3.9228415464        1.3778587064
 H          4.6673779114       -2.8135902647        2.3719626594
 H          5.9710529471       -2.2377780394       -0.3185826649
 H          6.3191300998       -1.4989786972        1.2559804291
 O          4.3974954499        0.0159499665        1.4028218468
 C          3.4611898670        1.0329904128        1.3808077797
 O          3.4497799541        1.7352622410        2.4112215262
 O          2.0892311072        0.4274870239       -1.9267732613
 C          1.6538317677        2.3345465084        0.3246551362
 C          0.2615969514        1.8403743713        0.6409111130
 C         -0.3755848937        2.2161251302        1.8177690794
 C         -1.6558082450        1.7717116911        2.0981538328
 C         -2.3237840096        0.9409279096        1.2163861159
 C         -1.6957756275        0.5587905906        0.0381565780
 C         -0.4154583122        1.0139875849       -0.2445182402
 H          0.0710967202        0.7095727029       -1.1594417488
 N         -2.3491885363       -0.3082689991       -0.8535000838
 S         -3.9337052298        0.0246292911       -1.2896555921
 O         -4.1222429265       -0.6296423130       -2.5658903909
 O         -4.2105281675        1.4419389543       -1.2473602549
 C         -4.9013628355       -0.8227353568       -0.0579952210
 C         -5.8663751910       -0.1365705116        0.6528600300
 C         -6.6157280890       -0.8202338464        1.5978280295
 C         -6.3888437109       -2.1709378676        1.8127817650
 C         -5.4175063435       -2.8461973933        1.0885859848
 C         -4.6656611046       -2.1688193108        0.1420504183
 H         -3.9036273754       -2.6568385512       -0.4426318355
 H         -5.2436696535       -3.8965540623        1.2587480566
 H         -6.9721636711       -2.7009160316        2.5491168746
 H         -7.3713558843       -0.2971903364        2.1616491921
 H         -6.0037424347        0.9147070293        0.4556143842
 H         -1.7925231052       -0.5455581216       -1.6621601708
 H         -3.3199412823        0.5899996897        1.4311597025
 H         -2.1382743678        2.0722019359        3.0157165463
 H          0.1449228843        2.8527200445        2.5185657213
 H          1.9857783050        2.9555263715        1.1672808481
 C          1.6481714531        3.1946074337       -0.9251071937
 C          1.1408134596        4.6009288609       -0.8352220449
 C          2.6044035091        4.3424286085       -1.0293170197
 H          3.0461332069        4.5591047541       -1.9903887483
 H          3.2681604333        4.5167504169       -0.1947391806
 H          0.5725090168        4.9970604692       -1.6629089965
 H          0.8125584942        4.9534674877        0.1309163759
 H          1.4383271719        2.6407012102       -1.8305441769
