  62
        -98.93914133
 C         -2.3377969886       -1.2646443904       -0.0117520780
 C         -3.1449996267       -0.5778066726        0.9213971015
 C         -3.9414097617        0.5558740141        0.4117774324
 C         -3.8410664871        0.8812832322       -0.8907309634
 C         -4.5170371711        2.0104294740       -1.6223856649
 C         -3.8739603424        3.3756813811       -1.3296218505
 C         -3.5474790963        3.6308842438        0.1396154555
 H         -2.8760180040        2.8478322565        0.4978351826
 H         -2.9998666162        4.5754678315        0.1984367581
 C         -4.7558785988        3.7307662188        1.0678321350
 H         -5.4028803746        4.5412406762        0.7253299402
 H         -4.3813988300        4.0012314105        2.0584742260
 C         -5.5988628819        2.4614905531        1.2086604332
 H         -6.2441232524        2.3214939666        0.3457201155
 H         -6.2583140080        2.6038766694        2.0697054402
 C         -4.7989532068        1.1912609687        1.4801126367
 H         -4.1368220889        1.3612252331        2.3369511534
 H         -5.4923849518        0.4061242624        1.8049101707
 H         -4.5403654748        4.1574639157       -1.6978552906
 H         -2.9388224737        3.4363199543       -1.8925115987
 H         -5.5777442538        2.0237033826       -1.3901312470
 H         -4.4117008375        1.7994789623       -2.6888447955
 O         -3.0267123437        0.2041700461       -1.7511022635
 C         -2.2610639365       -0.8746336990       -1.3482218778
 O         -1.5743872060       -1.3884919592       -2.2513109865
 O         -3.1971733573       -0.8888955503        2.1432537222
 C         -1.5054144211       -2.4444155335        0.4562237448
 C         -0.0412034380       -2.1700707461        0.2157224046
 C          0.8178284806       -3.0678566541       -0.4033376255
 C          2.1471834586       -2.7385403878       -0.6064362631
 C          2.6502092659       -1.5195429214       -0.1917091835
 C          1.8010649069       -0.6156587207        0.4339101865
 C          0.4713709440       -0.9488404489        0.6369197247
 H         -0.1905532040       -0.2408504512        1.1215664346
 N          2.3042303353        0.6208035300        0.8763585170
 S          3.1993718219        1.5446828460       -0.2039768145
 O          3.0603496378        2.9068155164        0.2650546236
 O          2.8123844387        1.2939799270       -1.5728742684
 C          4.8747358090        1.0072398779        0.0708329497
 C          5.3645066891        1.0339538286        1.3620797358
 C          6.6692937708        0.6275570612        1.5909763726
 C          7.4590255221        0.2075815431        0.5308585480
 C          6.9536943472        0.1901650111       -0.7600679450
 C          5.6484590177        0.5938155952       -0.9958074769
 H          5.2098239857        0.5904980643       -1.9810979150
 H          7.5686605994       -0.1365077498       -1.5831661175
 H          8.4742785091       -0.1082213870        0.7118677202
 H          7.0654876170        0.6392555847        2.5935645889
 H          4.7194647268        1.3699238926        2.1565871589
 H          1.6147754331        1.1940387724        1.3412268732
 H          3.6826543222       -1.2573731449       -0.3553681944
 H          2.8013962091       -3.4428333039       -1.0971888503
 H          0.4449515727       -4.0214274002       -0.7386336443
 H         -1.6683020511       -2.5039674287        1.5428604461
 C         -1.9998090864       -3.7255918866       -0.1810211471
 C         -1.8242357045       -5.0359698909        0.5248586490
 C         -3.1854183940       -4.4190344923        0.4179868328
 H         -3.9083138452       -4.8696028928       -0.2453651272
 H         -3.6210319860       -3.9788757059        1.3031904131
 H         -1.6143735459       -5.9152856177       -0.0650867503
 H         -1.3367355427       -5.0227680090        1.4877995602
 H         -1.9239632222       -3.7079830508       -1.2625428912
