  62
        -98.93895529
 C         -1.1042890739       -1.8979976285       -0.6445471399
 C         -0.3501001198       -2.2486898999        0.5019515737
 C          1.1174833915       -2.3617000473        0.3228007790
 C          1.6419128044       -2.2301669850       -0.9082354698
 C          3.0855698760       -2.2746084535       -1.3370734243
 C          3.8555470577       -0.9953078995       -0.9839583115
 C          3.6828778797       -0.5245302167        0.4569372094
 H          4.2515804053        0.4025130991        0.5740414931
 H          2.6365880503       -0.2761183404        0.6431005465
 C          4.1625812223       -1.5063934769        1.5243410456
 H          5.2045563098       -1.7713808326        1.3310302042
 H          4.1242024123       -0.9768326793        2.4798562970
 C          3.3428587146       -2.7929916506        1.6713138114
 H          3.5784319299       -3.2169505452        2.6517011132
 H          3.6319899454       -3.5398558878        0.9356817759
 C          1.8325607851       -2.5845143007        1.6320542660
 H          1.3421513606       -3.4527072223        2.0883501060
 H          1.5658426050       -1.7329414253        2.2709304183
 H          4.9145100581       -1.1688162510       -1.1847311030
 H          3.5120154865       -0.1923984393       -1.6410219041
 H          3.5793104064       -3.1447554800       -0.9149789178
 H          3.0810899070       -2.3883440816       -2.4235686676
 O          0.8583400185       -2.0023236683       -2.0038623776
 C         -0.4990359855       -1.7754973658       -1.8969589527
 O         -1.0575273923       -1.4899898432       -2.9758041895
 O         -0.8473899425       -2.4566475165        1.6375498072
 C         -2.5816710851       -1.5387193408       -0.6102796340
 C         -2.7103941523       -0.0449280607       -0.4317577512
 C         -3.5566815143        0.7092934786       -1.2355585753
 C         -3.6199814434        2.0844327894       -1.0929003467
 C         -2.8191198831        2.7345955386       -0.1712313139
 C         -1.9659814093        1.9902347508        0.6361714172
 C         -1.9387320779        0.6083866160        0.5197619276
 H         -1.2888979883        0.0421350663        1.1688663718
 N         -1.1209454701        2.6180841707        1.5687327983
 S          0.5055151903        2.2188267670        1.6097274885
 O          0.6806523324        0.8687954554        2.0729568827
 O          1.1057561444        3.2574311610        2.4182525001
 C          1.0609852985        2.3800847847       -0.0766791469
 C          0.8659229677        1.3307548997       -0.9512317199
 C          1.2461131153        1.4778196481       -2.2756601800
 C          1.8205924440        2.6663177228       -2.6993797487
 C          2.0164211465        3.7104802789       -1.8074838124
 C          1.6274671247        3.5718291343       -0.4850200657
 H          1.7640037465        4.3553606263        0.2426568183
 H          2.4674733997        4.6311794281       -2.1407518349
 H          2.1176391215        2.7752204550       -3.7305317320
 H          1.0804436487        0.6608947461       -2.9617833876
 H          0.4238755512        0.4138295850       -0.5945910784
 H         -1.2274609815        3.6218577011        1.6105182270
 H         -2.8494555279        3.8093541466       -0.0767787708
 H         -4.2840177979        2.6586548637       -1.7205615058
 H         -4.1530201195        0.2129725681       -1.9867615690
 H         -2.9687334751       -1.7839776795       -1.6125408658
 C         -3.3967791342       -2.3343913122        0.3967418802
 C         -3.9073080176       -1.7565309880        1.6787164358
 C         -4.8609031569       -2.0510644811        0.5621728035
 H         -5.5394331264       -2.8840028092        0.6664730571
 H         -5.2701353983       -1.2105095805        0.0223739005
 H         -3.9047426010       -2.3944543264        2.5492806482
 H         -3.6781089830       -0.7256450897        1.9008270463
 H         -3.0951819603       -3.3759607011        0.4276119545
