  62
        -98.94586388
 C         -1.5742106612       -1.5826827385       -0.2632791217
 C         -1.4333367806       -0.2244027983       -0.6382977807
 C         -2.6856506003        0.5384204024       -0.7521532098
 C         -3.8573456805       -0.0759067473       -0.5075443899
 C         -5.1984490502        0.5976191934       -0.5278821691
 C         -5.5677676296        1.1385890625        0.8606711914
 C         -4.4600596790        1.9627120415        1.5171696718
 H         -3.6098056693        1.3110721210        1.7313753910
 H         -4.8437978786        2.3161023010        2.4767384221
 C         -3.9825456887        3.1601697819        0.6841378125
 H         -3.9003208681        4.0306609814        1.3383112631
 H         -4.7242065288        3.3984553528       -0.0791770871
 C         -2.6168566189        2.9686266618        0.0218422320
 H         -1.8877547589        2.6408852109        0.7668048916
 H         -2.2883593686        3.9398491319       -0.3562645274
 C         -2.5767995897        1.9829188426       -1.1520912787
 H         -1.6003967198        2.0823897325       -1.6346970689
 H         -3.3513001098        2.2406924435       -1.8773749583
 H         -5.7969090198        0.2919056522        1.5120558109
 H         -6.4693315493        1.7466686930        0.7655926321
 H         -5.9474829406       -0.1347471660       -0.8337085794
 H         -5.1811050900        1.4090241839       -1.2528087585
 O         -3.9510121310       -1.3851171875       -0.1578551709
 C         -2.8161642914       -2.1666883281       -0.0162007618
 O         -3.0408669918       -3.3445870483        0.3298584274
 O         -0.3256306104        0.3241753114       -0.8676756206
 C         -0.3389339115       -2.4525973692       -0.1060057027
 C          0.5556188290       -1.8426422704        0.9444909276
 C          0.0732366794       -1.7430421812        2.2479924278
 C          0.8404205100       -1.1720631223        3.2440703980
 C          2.1002596601       -0.6741415826        2.9581952080
 C          2.5888932597       -0.7670792819        1.6610596778
 C          1.8219159592       -1.3568514108        0.6645515276
 H          2.2309772889       -1.4208370903       -0.3289330826
 N          3.8667817299       -0.2843275423        1.3458103378
 S          4.1796655198        0.4331502587       -0.1276341417
 O          4.2530590891       -0.5649117306       -1.1654617625
 O          5.4016011202        1.1780358879        0.1031693185
 C          2.8581873603        1.5845438295       -0.4572329405
 C          2.4022439909        2.3956516390        0.5619246902
 C          1.4290918913        3.3395450297        0.2810360712
 C          0.9403967410        3.4652490709       -1.0091947586
 C          1.4082619203        2.6437355914       -2.0207249293
 C          2.3743995200        1.6914699207       -1.7433476003
 H          2.7550660294        1.0229828411       -2.4991757309
 H          1.0182652501        2.7340952123       -3.0223278992
 H          0.1847362913        4.2041476314       -1.2258044578
 H          1.0528898818        3.9731057093        1.0686950217
 H          2.8023761112        2.2850919181        1.5569461200
 H          4.3466256903        0.1868719869        2.0982684580
 H          2.7012284906       -0.2225447535        3.7328993982
 H          0.4544217803       -1.1064060728        4.2501828981
 H         -0.9168906207       -2.1214157409        2.4652069777
 H         -0.6939033719       -3.4240971593        0.2664282667
 C          0.3407994780       -2.6623440685       -1.4419259830
 C          1.2490574574       -3.8372540788       -1.6392864441
 C         -0.0902279128       -3.8031924077       -2.3112675137
 H         -0.1288997930       -3.6519737169       -3.3796554436
 H         -0.8695359630       -4.4494116476       -1.9336180340
 H          2.1353183973       -3.7072385288       -2.2421237943
 H          1.3809388273       -4.5109264795       -0.8059150547
 H          0.5996968583       -1.7323758083       -1.9350256724
