  62
        -98.94793651
 C         -1.1785210080       -1.1006998365        0.0176355908
 C         -1.6068697962       -0.0740089559        0.8913476617
 C         -2.5761844963        0.8804304892        0.3390760198
 C         -2.9599821593        0.7577361559       -0.9446654093
 C         -3.9654248087        1.6396626712       -1.6256496558
 C         -5.3856609057        1.0715145983       -1.4962309708
 C         -5.7646132414        0.6769688468       -0.0688259856
 H         -6.7958092626        0.3183251356       -0.0936670317
 H         -5.1391339661       -0.1614509953        0.2457280489
 C         -5.6422956140        1.8127470336        0.9565084323
 H         -6.5325135218        1.8111142507        1.5889437834
 H         -5.6117394713        2.7740695123        0.4423313043
 C         -4.4341953839        1.6984099033        1.8877424082
 H         -4.5624293596        2.4180828491        2.7006150825
 H         -4.4095401286        0.7009184905        2.3334243682
 C         -3.0678053850        1.9729986614        1.2466610440
 H         -3.0910117698        2.9292245467        0.7189722365
 H         -2.3315407109        2.0466203229        2.0528659091
 H         -5.4613953099        0.1844150843       -2.1292828717
 H         -6.0901274833        1.8168820288       -1.8698957601
 H         -3.9182891925        2.6364766029       -1.1907903015
 H         -3.7018012378        1.7052745898       -2.6828824210
 O         -2.5038520557       -0.2227735371       -1.7648415550
 C         -1.6018797542       -1.1741761317       -1.3093091630
 O         -1.2638323857       -2.0129853241       -2.1662209437
 H          0.8931899000        0.0597073932       -0.6398568281
 C          1.5323770379       -0.8014341520       -0.7556525951
 C          1.1241945302       -2.0310461862       -0.2592540131
 C          1.9520258620       -3.1302116903       -0.4580387089
 C          3.1455211074       -2.9929967338       -1.1449859732
 C          3.5511180442       -1.7625492862       -1.6295451649
 C          2.7319205548       -0.6567403531       -1.4339580507
 N          3.0969184214        0.6101048950       -1.9104906234
 S          2.6413759646        1.9850178474       -1.0800018041
 O          1.2432488537        2.2679148948       -1.2926954324
 O          3.5656528926        2.9980043137       -1.5448956122
 C          2.9622868866        1.6144888708        0.6348932682
 C          4.2767698234        1.4204378791        1.0145641709
 C          4.5528165489        1.0796727740        2.3281005377
 C          3.5142786650        0.9304369382        3.2355556528
 C          2.2018102081        1.1357918913        2.8413873955
 C          1.9212093652        1.4841553974        1.5297066390
 H          0.9068154126        1.6421078045        1.1981791880
 H          1.3835208932        1.0141139678        3.5333264252
 H          3.7276155112        0.6543513733        4.2561413908
 H          5.5733278328        0.9256569365        2.6395363853
 H          5.0574537472        1.5515184299        0.2830742220
 H          4.0293718769        0.6788442483       -2.2893807454
 H          4.4830574929       -1.6574941029       -2.1630921125
 H          3.7738046207       -3.8567991808       -1.2999416723
 H          1.6578778400       -4.0959717867       -0.0809768975
 C         -0.1683730951       -2.1139953812        0.5177024931
 H          0.0492591707       -1.8191844892        1.5564411341
 C         -0.7676598969       -3.5064862987        0.5238518945
 C         -0.3964293420       -4.4935116043        1.5891152472
 C         -1.7551626965       -3.8625939611        1.5936102432
 H         -2.6099624217       -4.4659498780        1.3271698462
 H         -1.9679703002       -3.1104441328        2.3394152813
 H         -0.3196546291       -5.5362951341        1.3200580471
 H          0.3078266296       -4.1766114157        2.3433828733
 H         -0.9589748637       -3.8777946713       -0.4766755512
 O         -1.1917632167        0.0427207369        2.0765340673
