  62
        -98.94239621
 C         -0.7086394949       -1.3193630605        0.1131024167
 C         -1.4773377343       -0.8205123109        1.1879500958
 C         -2.4050469941        0.2802881753        0.8740813055
 C         -2.4586817232        0.7477057968       -0.3856808711
 C         -3.4247219080        1.7549923076       -0.9465728874
 C         -4.6663511850        1.0489780102       -1.5205178278
 C         -5.7959141932        0.8077067024       -0.5205053414
 H         -6.2551556983        1.7634226745       -0.2593226343
 H         -6.5552630370        0.2071571794       -1.0265615635
 C         -5.3868358879        0.0934806792        0.7699219262
 H         -6.2857959127       -0.3391422740        1.2134836222
 H         -4.7120991651       -0.7324768221        0.5369342790
 C         -4.7287484219        1.0291766695        1.7945155400
 H         -5.2193436361        0.9089657964        2.7627654341
 H         -4.8926682602        2.0631986167        1.4918473443
 C         -3.2294966722        0.7885361625        2.0254416490
 H         -2.7714276926        1.7105502567        2.4002094966
 H         -3.1006171937        0.0370477996        2.8111298253
 H         -4.3432754367        0.0959523201       -1.9466953637
 H         -5.0653640430        1.6538138891       -2.3372075948
 H         -2.9097088248        2.2596239271       -1.7647218874
 H         -3.7031753222        2.4871389816       -0.1945824199
 O         -1.6478841604        0.2840386247       -1.3752803746
 C         -0.7503257805       -0.7457484435       -1.1571559510
 O         -0.0677805440       -1.0557705767       -2.1505010251
 O         -1.4109128691       -1.2914583229        2.3572587307
 C          0.1993225004       -2.5127676006        0.3430779112
 C          1.6245717326       -2.1782055391       -0.0147678365
 C          2.4313527658       -3.0012889393       -0.7898663964
 C          3.7334733643       -2.6328406037       -1.0798353406
 C          4.2556275769       -1.4434998110       -0.6076118437
 C          3.4593163360       -0.6188776440        0.1807498382
 C          2.1584220669       -0.9924768696        0.4751492617
 H          1.5499227616       -0.3514920481        1.0974075365
 N          3.9677809329        0.5851589735        0.6859154352
 S          2.9876702791        1.8537280019        1.1153612201
 O          3.8899896445        2.9853182134        1.1823884338
 O          2.2799019729        1.5562690767        2.3366082514
 C          1.8232961507        2.1397138406       -0.2067519337
 C          2.1213745715        1.8041691766       -1.5114269442
 C          1.2215288889        2.1394680006       -2.5106056207
 C          0.0582313116        2.8217389243       -2.1954887080
 C         -0.2249124651        3.1576275825       -0.8809485152
 C          0.6602945139        2.8059121148        0.1236820321
 H          0.4709215569        3.0310253899        1.1616088428
 H         -1.1295493493        3.6887531566       -0.6321601870
 H         -0.6328487555        3.0876103751       -2.9799212982
 H          1.4311630232        1.8626534192       -3.5310152922
 H          3.0322479229        1.2772441137       -1.7442553315
 H          4.8555938552        0.8848220962        0.3127098186
 H          5.2684497039       -1.1523563660       -0.8398922601
 H          4.3483758017       -3.2781985327       -1.6883334615
 H          2.0401309621       -3.9291838834       -1.1725592114
 H          0.1577391192       -2.7091006348        1.4252464997
 C         -0.3441905303       -3.7207585617       -0.3931306845
 C         -0.1083443994       -5.1023951576        0.1375313068
 C         -1.4741631602       -4.4916236697        0.2183622477
 H         -2.2505523333       -4.8712020113       -0.4289257459
 H         -1.8331012404       -4.1616610012        1.1825146571
 H          0.0505787051       -5.9058481947       -0.5657885208
 H          0.4583193432       -5.1965127714        1.0515284530
 H         -0.3613040992       -3.5786224147       -1.4680971168
