  62
        -98.93502910
 C         -2.2685889795        1.2424230103       -0.2543813386
 C         -2.4081857772        0.2326660376       -1.2378146102
 C         -2.9359559213       -1.0741691364       -0.8069018088
 C         -3.2522636292       -1.2426471320        0.4897701008
 C         -3.7647169549       -2.4827983488        1.1723271589
 C         -2.6565164593       -3.5190378612        1.4198935348
 C         -1.7022844787       -3.7345904440        0.2478920617
 H         -1.2213848361       -2.7853316428        0.0002564174
 H         -0.9090853702       -4.4059973892        0.5891512211
 C         -2.3305250351       -4.3492595031       -1.0012374986
 H         -2.7505797472       -5.3243067579       -0.7432914625
 H         -1.5234407838       -4.5142860475       -1.7194710002
 C         -3.4176104067       -3.5212807635       -1.6896356013
 H         -4.3576242493       -3.5815265878       -1.1479040493
 H         -3.5947690260       -3.9713783234       -2.6708428082
 C         -3.0454999786       -2.0637950718       -1.9412303450
 H         -2.0826969297       -2.0253497176       -2.4632909700
 H         -3.7717219863       -1.6330485309       -2.6413319215
 H         -3.1240538740       -4.4668083714        1.6936718240
 H         -2.0573104403       -3.1779967194        2.2683421985
 H         -4.5795336223       -2.9151289851        0.5989854649
 H         -4.1666273308       -2.1670519074        2.1378581865
 O         -3.0984455564       -0.2463658392        1.4059821959
 C         -2.5754531853        0.9947122160        1.0823307204
 O         -2.4552150727        1.7559821986        2.0630041887
 O         -2.0992169132        0.4176454655       -2.4464803120
 C         -1.6537118706        2.5527575285       -0.7186868210
 C         -0.1536273266        2.4076685397       -0.6820718023
 C          0.6421923189        2.6974593781       -1.7832475426
 C          2.0067743015        2.4632766710       -1.7495645023
 C          2.5996598420        1.9125331854       -0.6265350284
 C          1.8109754812        1.6268583177        0.4793573109
 C          0.4533435457        1.8926046655        0.4553485532
 H         -0.1492702340        1.6583874530        1.3218697847
 N          2.3946638367        0.9686013830        1.5993424604
 S          2.2751989850       -0.7075834260        1.3991382111
 O          0.9890431255       -1.0882643196        0.8570296678
 O          2.6229178598       -1.2857551719        2.6792416620
 C          3.5605716600       -1.0252435795        0.2132072259
 C          4.8732428624       -1.0017151705        0.6427213230
 C          5.8830679225       -1.2010327505       -0.2849340618
 C          5.5638175068       -1.4141373749       -1.6179812200
 C          4.2406517689       -1.4336341411       -2.0324725567
 C          3.2253565407       -1.2362039743       -1.1094660474
 H          2.1824957688       -1.2380919408       -1.3862018794
 H          3.9934228815       -1.5973354761       -3.0690385160
 H          6.3509433828       -1.5660660140       -2.3395599506
 H          6.9131755483       -1.1871028409        0.0326087368
 H          5.0705819672       -0.8347522876        1.6885817918
 H          1.9243748583        1.2042979505        2.4643958298
 H          3.6560375776        1.7006459080       -0.5979550392
 H          2.6110164755        2.6916164747       -2.6137486904
 H          0.1792706043        3.0830819961       -2.6796170451
 H         -1.9507279490        2.6511775808       -1.7749116746
 C         -2.1660586098        3.7782001069        0.0205012595
 C         -1.3261413371        4.5780702390        0.9666375037
 C         -1.6800787860        5.1415083505       -0.3748537799
 H         -2.3932086052        5.9498475361       -0.4265962578
 H         -0.8958448033        5.1922696506       -1.1149398280
 H         -1.8081185904        4.9758916554        1.8465543959
 H         -0.3076742641        4.2649128074        1.1363383498
 H         -3.2169539122        3.6883671287        0.2743202404
