  62
        -98.94310345
 C         -2.5600460341       -0.1765256424        0.5337949250
 C         -2.2020563816        0.3627974144       -0.7273715062
 C         -1.9846687100        1.8175162699       -0.7660470292
 C         -2.0872011893        2.5336693545        0.3668554928
 C         -1.8622035647        4.0137822987        0.4769677865
 C         -0.4055050269        4.3398868648        0.8308997793
 C          0.6231067869        3.6394273145       -0.0573808450
 H          0.6038475003        2.5640344390        0.1383099139
 H          1.6100657510        3.9962466978        0.2474606415
 C          0.4344859718        3.8780115474       -1.5620377669
 H          1.4107987598        4.0833368163       -2.0057507881
 H         -0.1892718344        4.7584221110       -1.7249631191
 C         -0.1548293687        2.6838968501       -2.3157162342
 H          0.3883269365        1.7780935367       -2.0356392239
 H         -0.0047412609        2.8464507938       -3.3867468819
 C         -1.6519464263        2.4307084137       -2.0969258452
 H         -1.9794025034        1.7072819617       -2.8494865319
 H         -2.2105562570        3.3582939387       -2.2440662524
 H         -0.2235390598        4.0379336374        1.8652425728
 H         -0.2703475894        5.4213787897        0.7624056904
 H         -2.1318962414        4.4855749342       -0.4660794139
 H         -2.5117096137        4.3992562826        1.2652646862
 O         -2.3881183271        1.9757561303        1.5689536999
 C         -2.6088707672        0.6136353048        1.6834946354
 O         -2.8436085496        0.2316123402        2.8494173854
 H         -0.2036016199       -1.2359371365        1.1410522343
 C         -0.3456131645       -2.0302909802        0.4207018314
 C         -1.6352471700       -2.4157104763        0.0757319202
 C         -1.7975862426       -3.4418491160       -0.8446489519
 C         -0.6908064664       -4.0426461965       -1.4202682891
 C          0.5892745540       -3.6252761548       -1.1072010644
 C          0.7613448731       -2.6049189480       -0.1780206180
 N          2.0455909566       -2.1506916480        0.1786674749
 S          2.2099967385       -0.4889367265        0.4505906715
 O          1.8394154036       -0.2033421775        1.8159711568
 O          1.5199394768        0.2573110889       -0.5740370558
 C          3.9743215320       -0.3033790225        0.2689187042
 C          4.7925745564       -0.7961733752        1.2682529324
 C          6.1661374460       -0.6816028696        1.1263047915
 C          6.6957677748       -0.0785244590       -0.0052916931
 C          5.8620252880        0.4139353734       -0.9976923316
 C          4.4867828279        0.3003319652       -0.8631440250
 H          3.7983232316        0.6717317452       -1.6052892635
 H          6.2758246073        0.8852550206       -1.8745051027
 H          7.7652188785        0.0102812972       -0.1128170304
 H          6.8172572493       -1.0610687146        1.8971227410
 H          4.3344421715       -1.2467618120        2.1332561818
 H          2.7616314507       -2.4870900374       -0.4517134196
 H          1.4484718797       -4.0772847630       -1.5793413298
 H         -0.8292880091       -4.8343558653       -2.1410663774
 H         -2.7881299570       -3.7519626266       -1.1343191252
 C         -2.7707920516       -1.6694027594        0.7325960546
 H         -2.6800046671       -1.8209132375        1.8220130733
 C         -4.1496379016       -2.1776813726        0.3398695151
 C         -5.3348386457       -1.2599312869        0.3245066385
 C         -4.8007321799       -1.8153307636       -0.9597345030
 H         -5.3810698470       -2.5713466929       -1.4683897115
 H         -4.2582235299       -1.1590676148       -1.6208941725
 H         -5.1599922539       -0.2162335330        0.5436669121
 H         -6.2765084903       -1.6332164540        0.6982980004
 H         -4.3293566820       -3.1820585883        0.7113629583
 O         -2.0869900216       -0.3206625336       -1.7773722257
