  62
        -98.94517128
 C         -1.0523448708       -1.2956289296        0.4670007298
 C         -1.5668423005       -0.7098811997       -0.7175001503
 C         -2.3708466904        0.5082265304       -0.5283419006
 C         -2.5725993906        1.0047073505        0.7043595694
 C         -3.3378121706        2.2541939206        1.0465816991
 C         -4.8567519706        2.0523683508        1.1359037888
 C         -5.5684887504        1.8504155307       -0.2024532213
 H         -6.6396909204        1.9431179308       -0.0126283515
 H         -5.2885841302        2.6522573106       -0.8865115713
 C         -5.3016531804        0.4912800706       -0.8645170711
 H         -4.8962135206       -0.2020694693       -0.1240997610
 H         -6.2439597203        0.0670894307       -1.2183858113
 C         -4.3521353501        0.5447406504       -2.0618398909
 H         -4.8062668299        1.1284809504       -2.8658161311
 H         -4.2024551801       -0.4738748696       -2.4288810408
 C         -2.9744906601        1.1404217004       -1.7452460107
 H         -2.3049159500        0.9431093402       -2.5870760506
 H         -3.0509153701        2.2202660204       -1.6145121508
 H         -5.0577300708        1.1986363208        1.7870361989
 H         -5.2750253906        2.9412609009        1.6136883987
 H         -2.9774656607        2.5826606607        2.0238318091
 H         -3.1133388904        3.0319100305        0.3155886191
 O         -2.0647046009        0.4128825106        1.8177404295
 C         -1.3055664310       -0.7431097095        1.7258189497
 O         -0.9154301212       -1.1800596494        2.8267114099
 H          0.9483239796       -0.7236512600       -1.2465883198
 C          1.6810113394       -1.2057270600       -0.6192714096
 C          1.2922564392       -2.1577598798        0.3115070404
 C          2.2715094190       -2.7755000199        1.0817524906
 C          3.6055043290       -2.4484932300        0.9220651808
 C          3.9865835093       -1.4810228301        0.0096592008
 C          3.0158509195       -0.8539851401       -0.7618335594
 N          3.3636832798        0.1529940198       -1.6809424795
 S          2.5150483299        1.5959798699       -1.6139686797
 O          1.2211038700        1.4579333699       -2.2275395900
 O          3.4056399501        2.5623566097       -2.2216750897
 C          2.3551305196        1.9280906600        0.1308914002
 C          1.1569219294        1.6817257702        0.7680621700
 C          1.0746664992        1.8720387803        2.1385069400
 C          2.1875213791        2.3040480103        2.8428040501
 C          3.3828609893        2.5569877001        2.1865837903
 C          3.4718046395        2.3626959100        0.8182313404
 H          4.3792952096        2.5559152999        0.2696805105
 H          4.2433881492        2.8986184501        2.7386141305
 H          2.1177446289        2.4442091504        3.9099037101
 H          0.1473598491        1.6632755705        2.6489684598
 H          0.3106898295        1.3457252902        0.1881227799
 H          4.3562867798        0.3348419497       -1.7341682693
 H          5.0251444894       -1.2116473202       -0.1067543690
 H          4.3548419789       -2.9390480800        1.5239025910
 H          1.9788764988       -3.5097695998        1.8170283906
 C         -0.1636153509       -2.5273538497        0.4838296401
 H         -0.2764453411       -2.9643675996        1.4859996601
 C         -0.5502181608       -3.5789619898       -0.5388647199
 C         -0.2452331510       -5.0194375898       -0.2637712297
 C         -1.6624147609       -4.5328334296       -0.2280132900
 H         -2.3321895208       -4.8179006496       -1.0252790901
 H         -2.1453937011       -4.4392190395        0.7341223199
 H          0.0632360391       -5.6446182299       -1.0874614196
 H          0.2262526088       -5.2650253697        0.6755006304
 H         -0.4654662606       -3.2308171399       -1.5600775899
 O         -1.3773829103       -1.1523216598       -1.8805834402
