  62
        -98.93802633
 C         -2.6367457372       -1.0525714496       -0.2259030409
 C         -2.3128605075       -0.0278756764       -1.1515955386
 C         -2.9345289660        1.2813691028       -0.8896736115
 C         -3.8036894982        1.4297196177        0.1247918309
 C         -4.5518335875        2.6860152693        0.4813990461
 C         -3.7631055025        3.6545879725        1.3724577829
 C         -2.6177450700        4.3885518332        0.6745986984
 H         -2.9904223740        4.8616536106       -0.2344131205
 H         -2.2889539872        5.1841478241        1.3460363356
 C         -1.4130409414        3.4993205610        0.3358891430
 H         -0.4888393985        4.0039772084        0.6255852790
 H         -1.4612999878        2.5750059705        0.9168786891
 C         -1.2778567861        3.1396141981       -1.1438718475
 H         -1.0799896968        4.0439890832       -1.7245168995
 H         -0.4144492977        2.4764144308       -1.2491888538
 C         -2.5049682149        2.4372257128       -1.7411851510
 H         -2.2302397873        2.0435841205       -2.7230930986
 H         -3.3231348985        3.1476090651       -1.8636855201
 H         -4.4684572237        4.3986086969        1.7497249680
 H         -3.3717992886        3.1008354616        2.2289378842
 H         -5.4457005969        2.3695901679        1.0233867586
 H         -4.8601477330        3.1980176918       -0.4305245948
 O         -4.1349349401        0.4039040912        0.9546999753
 C         -3.5277816232       -0.8334153183        0.8281002990
 O         -3.8773916014       -1.6615493365        1.6944789723
 O         -1.5674199110       -0.1728704496       -2.1534725884
 C         -2.0231002689       -2.4426227656       -0.2570096883
 C         -0.7870857812       -2.4897668450        0.6060099515
 C         -0.5892062940       -3.5329461656        1.5037867833
 C          0.5486957362       -3.5798435000        2.2890754967
 C          1.5148492129       -2.5963737295        2.1833121059
 C          1.3217841673       -1.5422959479        1.2966416603
 C          0.1728928999       -1.4913565649        0.5203859997
 H          0.0383770811       -0.6672094331       -0.1641649041
 N          2.2695986886       -0.5125750645        1.1895135060
 S          2.5435316749        0.1466855850       -0.3453014871
 O          1.6177520297        1.2274858105       -0.5596013300
 O          2.5661475583       -0.9108029843       -1.3292219619
 C          4.1863714744        0.8041286290       -0.1177764262
 C          4.3330526385        2.0595233315        0.4409932191
 C          5.6104652863        2.5548922984        0.6498783604
 C          6.7137847588        1.7910583113        0.2991787684
 C          6.5511287277        0.5339170271       -0.2633746491
 C          5.2762901981        0.0322734599       -0.4736859533
 H          5.1005774530       -0.9347215561       -0.9171021691
 H          7.4104466803       -0.0559134472       -0.5388269316
 H          7.7066414930        2.1793611889        0.4622946147
 H          5.7404695938        3.5332479112        1.0835362753
 H          3.4459609077        2.6192001021        0.6881775752
 H          3.1361813947       -0.7248961126        1.6651657207
 H          2.4072623556       -2.6343990397        2.7894480409
 H          0.6885756265       -4.3937214711        2.9841393665
 H         -1.3431782664       -4.3014614050        1.5918166233
 H         -2.7723213690       -3.1033910605        0.2097787165
 C         -1.7736133570       -2.9742692089       -1.6609274372
 C         -0.4257985292       -3.0115888972       -2.3089782714
 C         -1.0698047646       -4.2853554463       -1.8553960186
 H         -1.4470135994       -4.9680900929       -2.6017025021
 H         -0.6611629352       -4.7661634632       -0.9794002576
 H         -0.3793379226       -2.7969751330       -3.3661035806
 H          0.4241248563       -2.6275860281       -1.7649991913
 H         -2.6122814114       -2.7694829040       -2.3191453161
