  62
        -98.94102579
 C         -1.6920957796       -1.4537486402       -0.0637141506
 C         -2.8005838599       -0.7919479399        0.5151901685
 C         -3.2158104397        0.4799673897       -0.0984074624
 C         -2.5164367792        0.9697475392       -1.1387212823
 C         -2.7090249288        2.2219621788       -1.9680476130
 C         -3.5996757091        3.3571230090       -1.4709710541
 C         -3.0820466398        4.0759889397       -0.2257359542
 H         -3.8363778000        4.8019810898        0.0868539250
 H         -2.1769694497        4.6280180396       -0.4920381840
 C         -2.7351844304        3.1807735603        0.9620109665
 H         -2.3968209909        3.8267785207        1.7777809663
 H         -1.8900803102        2.5352192002        0.7084426072
 C         -3.8850821106        2.3265801005        1.4944711463
 H         -4.7393455808        2.9656902106        1.7280244155
 H         -3.5445011211        1.8678084310        2.4269950367
 C         -4.3570067001        1.1921221500        0.5679842366
 H         -5.0691320297        1.5532305396       -0.1703165139
 H         -4.8691294204        0.4463772103        1.1832973268
 H         -4.6128778292        3.0006641990       -1.3098601644
 H         -3.6464304288        4.0921695485       -2.2793029345
 H         -1.7008682687        2.6114363487       -2.1430256627
 H         -3.0865706983        1.8849694682       -2.9401667531
 O         -1.4568191889        0.2962161590       -1.6670150814
 C         -0.9881790091       -0.8872504507       -1.1251361405
 O          0.0365344112       -1.3228838309       -1.6850598397
 H          0.0028678594       -0.6263528891        1.7557152099
 C          0.7334465796       -1.3618031093        1.4498438606
 C          0.3135068600       -2.5425198796        0.8483126610
 C          1.2752098902       -3.4701928897        0.4722236120
 C          2.6201761801       -3.2051582095        0.6713499626
 C          3.0345607098       -2.0036388292        1.2156871122
 C          2.0773522795       -1.0707404291        1.5983370012
 N          2.4304590692        0.1943825312        2.1169326607
 S          2.0576678496        1.5161673907        1.1501879698
 O          2.4778692391        2.6731233411        1.9125334295
 O          0.6709880498        1.4741851404        0.7668373491
 C          3.1288453203        1.3314547800       -0.2649565695
 C          2.7946022409        0.4324718095       -1.2578530192
 C          3.6792779115        0.2480511890       -2.3105590786
 C          4.8706368215        0.9553636090       -2.3517138784
 C          5.1902893609        1.8540621795       -1.3446409987
 C          4.3150738503        2.0408667300       -0.2875930592
 H          4.5175276098        2.7293857605        0.5170390205
 H          6.1161020209        2.4054712896       -1.3786543785
 H          5.5525007019        0.8052401886       -3.1738966580
 H          3.4235420019       -0.4526228115       -3.0891903684
 H          1.8591735709       -0.1047476106       -1.2130442794
 H          3.3999123990        0.2618116514        2.3974553112
 H          4.0846150997       -1.7825398791        1.3359310626
 H          3.3568176503       -3.9349757697        0.3719349034
 H          0.9760280805       -4.3914099800       -0.0001511476
 C         -1.1689218799       -2.7054860198        0.6206688703
 H         -1.6665597304       -2.7037164093        1.6056550501
 C         -1.5485904095       -4.0139157702       -0.0542655592
 C         -2.7506263590       -4.0999646907       -0.9453918098
 C         -1.3765519887       -4.2327952709       -1.5264433890
 H         -1.0583054584       -5.2078928811       -1.8651970683
 H         -0.9811751784       -3.4148112012       -2.1071984992
 H         -3.2991185289       -3.1879644708       -1.1327321705
 H         -3.3737223090       -4.9795594407       -0.8826300196
 H         -1.3703727298       -4.8696097898        0.5898292214
 O         -3.4199891104       -1.2442088695        1.5171114284
