  62
        -98.94525166
 C         -1.4838117982       -0.7925698501       -0.5301643763
 C         -2.6229291448       -1.0289775291        0.2834316619
 C         -3.3712649347        0.1516845939        0.7294580323
 C         -2.9288641312        1.3742957084        0.3844353463
 C         -3.6082930834        2.6654586707        0.7365781992
 C         -4.6011212061        3.0882779349       -0.3552447675
 C         -5.5531836721        1.9728418019       -0.7869299814
 H         -6.2263623811        2.3921151360       -1.5376984816
 H         -4.9773327396        1.1834949697       -1.2752669815
 C         -6.3771527929        1.3641713557        0.3563152494
 H         -6.3728042125        2.0366700700        1.2148591286
 H         -7.4135716748        1.2652472027        0.0269110938
 C         -5.9166078665       -0.0255529510        0.8003083466
 H         -6.6886070560       -0.4483214800        1.4487311212
 H         -5.8281215896       -0.6782031999       -0.0717610150
 C         -4.5931607672       -0.0755624691        1.5746226682
 H         -4.4870637228       -1.0826350615        1.9887254338
 H         -4.6240865418        0.6339736607        2.4044039099
 H         -5.1766285749        3.9397124411        0.0126660218
 H         -4.0342360082        3.4134098697       -1.2305921409
 H         -2.8430365497        3.4365822151        0.8428109630
 H         -4.1242780836        2.5489281455        1.6878435846
 O         -1.8263042218        1.5673777384       -0.3776273831
 C         -1.0745858688        0.5014214366       -0.8522319237
 O         -0.1033083685        0.8590864750       -1.5465810432
 O         -3.0011699942       -2.1855392389        0.6149738728
 C         -0.7081607831       -2.0248906518       -0.9676261269
 C          0.3652399612       -2.3363048070        0.0496140520
 C          0.3634537634       -3.5456494275        0.7334734878
 C          1.3205065836       -3.8076139944        1.6976724699
 C          2.2789830736       -2.8616784316        2.0083405712
 C          2.2909490243       -1.6467606368        1.3285037988
 C          1.3529993446       -1.4033735395        0.3365518633
 H          1.3609575086       -0.4603957743       -0.1835648710
 N          3.2596097798       -0.6835453208        1.6332878968
 S          2.9924732736        0.9682189074        1.5234062457
 O          3.8114478607        1.5244858360        2.5829520397
 O          1.5875017408        1.2928956206        1.5725767714
 C          3.7395726869        1.3973314942       -0.0347777191
 C          5.1215862704        1.3990167991       -0.0829371971
 C          5.7538844748        1.7111657725       -1.2741796197
 C          4.9969344202        2.0152741928       -2.3962933945
 C          3.6130304583        2.0107264642       -2.3308938164
 C          2.9721470979        1.6999148720       -1.1399349706
 H          1.8949711111        1.6824082441       -1.0727807324
 H          3.0180181987        2.2444703674       -3.1994965899
 H          5.4870481900        2.2587368671       -3.3258973661
 H          6.8307159912        1.7169944858       -1.3257457064
 H          5.6697729423        1.1706802978        0.8159550469
 H          3.8473672675       -0.9103339169        2.4216564048
 H          3.0120580924       -3.0542069060        2.7770426960
 H          1.3095265994       -4.7496772464        2.2246405392
 H         -0.4078103954       -4.2715083317        0.5222380675
 H         -1.4360955855       -2.8477978747       -0.9398822200
 C         -0.1286292140       -1.9478723005       -2.3649444890
 C          0.1717576077       -3.2219605534       -3.0943424375
 C         -0.9722629832       -2.3588163650       -3.5327370640
 H         -0.8810303666       -1.8026596155       -4.4534004951
 H         -1.9766965742       -2.7003427555       -3.3280839198
 H          1.0529536252       -3.2622263898       -3.7156181588
 H         -0.0580199230       -4.1511276085       -2.5952433169
 H          0.5451871192       -1.1142040015       -2.5089151267
