  62
        -98.93700675
 C          2.0183534276        0.3144654272       -0.3169247871
 C          3.0168944531        0.9196730193        0.4834979772
 C          4.2483683094        0.1434783634        0.6766820052
 C          4.3534654030       -1.0816398527        0.1312444138
 C          5.5120822467       -2.0330534470        0.2739809380
 C          6.8459222356       -1.5809911475       -0.3515123462
 C          7.7925559262       -0.8690506548        0.6229086975
 H          8.8134484976       -1.2036745572        0.4277097560
 H          7.5502020791       -1.1815906213        1.6393760976
 C          7.8020912102        0.6607042896        0.5469174205
 H          8.3876617585        0.9707930346       -0.3216253446
 H          8.3115153529        1.0360653973        1.4371032707
 C          6.4330351897        1.3326006026        0.4393320900
 H          6.0454953114        1.2155984321       -0.5755072067
 H          6.5666985894        2.4047378298        0.5964341713
 C          5.3741594064        0.7981606805        1.4232135329
 H          4.9359375274        1.6260034067        1.9842480942
 H          5.8220399195        0.1023244571        2.1310307590
 H          6.6463036596       -0.9515226664       -1.2183335352
 H          7.3451748280       -2.4808877034       -0.7143389738
 H          5.6630610598       -2.2446956915        1.3350278802
 H          5.1882807073       -2.9583614490       -0.2069969487
 O          3.3580731913       -1.6382866459       -0.6117694039
 C          2.1759271302       -0.9581138535       -0.8653447010
 O          1.3689841683       -1.5853869937       -1.5775318632
 H         -1.3959192815       -0.2536951923       -1.7360185867
 C         -1.4081835382       -0.3064166148       -0.6590542392
 C         -0.4123761002        0.3145876946        0.0769945833
 C         -0.4529664037        0.2190500322        1.4661170824
 C         -1.4541009478       -0.4927288843        2.0979974841
 C         -2.4386355860       -1.1257437229        1.3587896327
 C         -2.4097243978       -1.0326159549       -0.0256875745
 N         -3.4087611244       -1.6676094932       -0.7808996799
 S         -4.9980533649       -1.5038804543       -0.2895242405
 O         -5.2730032254       -2.4168601642        0.7919636045
 O         -5.7864890884       -1.6886874089       -1.4875122147
 C         -5.1275135621        0.1784081196        0.2913930549
 C         -4.9061944152        1.1963122872       -0.6152839772
 C         -4.9626956492        2.5088689969       -0.1765497618
 C         -5.2356209406        2.7801486311        1.1556900007
 C         -5.4598088124        1.7475056006        2.0524938230
 C         -5.4041987953        0.4323283069        1.6190238620
 H         -5.5716041836       -0.4000092919        2.2829426898
 H         -5.6737259106        1.9614737618        3.0872712751
 H         -5.2745718288        3.8030633760        1.4955808979
 H         -4.7911091651        3.3141253831       -0.8726923552
 H         -4.7031548960        0.9512162063       -1.6453132404
 H         -3.3091884656       -1.5524791425       -1.7782106907
 H         -3.2176867371       -1.7009673005        1.8320949263
 H         -1.4687175457       -0.5606244897        3.1751425182
 H          0.3213877402        0.7061731678        2.0425390464
 C          0.7247713795        1.0733135142       -0.5597228919
 H          0.8433340128        2.0237983491       -0.0209315927
 C          0.5287674147        1.3681246353       -2.0312424404
 C         -0.4083094662        2.4605001205       -2.4497269192
 C          1.0715787588        2.6448869134       -2.5965576074
 H          1.4994822188        2.6277404420       -3.5878283012
 H          1.5748965159        3.3163747041       -1.9165887675
 H         -0.9105742505        3.0095132203       -1.6680404849
 H         -0.9981231442        2.3218915283       -3.3431494724
 H          0.5962059134        0.4832322103       -2.6536967321
 O          2.8818755651        2.0525328651        1.0181811802
