  62
        -98.94404173
 C          2.1119401779        0.8794685732        0.0604328035
 C          2.5114939871       -0.4576700749       -0.1780838322
 C          3.8247510179       -0.8338197276        0.3622008547
 C          4.5451146471        0.0616286775        1.0613980531
 C          5.8875886423       -0.1813913316        1.6960526688
 C          7.0726065284       -0.0151483543        0.7349317984
 C          7.2341556063       -1.1315096889       -0.2975414836
 H          8.2167083991       -1.0037224621       -0.7562082855
 H          7.2352441765       -2.0967337948        0.2098755269
 C          6.1696398922       -1.1302331980       -1.4035295993
 H          5.6677802174       -0.1601664081       -1.4249413876
 H          6.6530830693       -1.2618867187       -2.3742096381
 C          5.1153618290       -2.2292808121       -1.2702369583
 H          5.5893522051       -3.2073279616       -1.3795857543
 H          4.3938179630       -2.1125864486       -2.0828549987
 C          4.3428700293       -2.2064980352        0.0553505201
 H          3.4816742875       -2.8730843877       -0.0369036598
 H          4.9766030348       -2.5651780828        0.8662149469
 H          6.9745977992        0.9443533919        0.2219540854
 H          7.9805065735        0.0235578262        1.3412702854
 H          5.9893832774        0.5532170316        2.4977946827
 H          5.9104058281       -1.1793524094        2.1348352254
 O          4.1092356048        1.3278572060        1.2965526568
 C          2.8965916039        1.7700372983        0.7948296496
 O          2.6288213764        2.9569185912        1.0708263198
 O          1.8170511583       -1.2968637060       -0.8085441686
 C          0.7788398525        1.3914981703       -0.4599386212
 C         -0.3336468514        0.6263980565        0.2144416593
 C         -0.5189192720        0.7952521270        1.5845359039
 C         -1.5053647726        0.0996392824        2.2564562527
 C         -2.3284904471       -0.7824195455        1.5774779644
 C         -2.1532139498       -0.9558602705        0.2116498431
 C         -1.1690711679       -0.2447610366       -0.4649495527
 H         -1.0418464904       -0.3985904306       -1.5245182600
 N         -2.9857135627       -1.8471499995       -0.4835372037
 S         -4.6275689440       -1.8093416763       -0.1757018623
 O         -4.9151004685       -2.5246990007        1.0425670558
 O         -5.2493252765       -2.3269712731       -1.3741701965
 C         -5.0161547011       -0.0800934581        0.0320966727
 C         -4.7980748969        0.7668566475       -1.0367330261
 C         -5.0605998304        2.1183889744       -0.8855841311
 C         -5.5322693269        2.5985468743        0.3268125107
 C         -5.7500294578        1.7351020670        1.3888394576
 C         -5.4882731877        0.3819465209        1.2433690061
 H         -5.6428445762       -0.3233083867        2.0435991330
 H         -6.1190931273        2.1109473452        2.3294861738
 H         -5.7321450103        3.6521107602        0.4428749658
 H         -4.8941455077        2.7920551911       -1.7108147147
 H         -4.4375275588        0.3607809717       -1.9680082366
 H         -2.7882244013       -1.9157851357       -1.4704785726
 H         -3.0912993560       -1.3480055328        2.0874486846
 H         -1.6337904333        0.2398617488        3.3190145863
 H          0.1314267097        1.4773616653        2.1153657359
 H          0.7126884306        2.4392263774       -0.1358425792
 C          0.7343518396        1.3458187126       -1.9724144656
 C         -0.2543563365        2.1961598891       -2.7106206948
 C          1.2046413918        2.5364635928       -2.7500527125
 H          1.7502537009        2.3699003364       -3.6668825816
 H          1.5472717538        3.3939520120       -2.1893238349
 H         -0.7116660442        1.8007305149       -3.6049893003
 H         -0.9037915833        2.8264339643       -2.1225253052
 H          0.9706546697        0.3676224166       -2.3742450747
