  62
        -98.93990201
 C          1.5365741818        1.1000205634       -0.0167674283
 C          2.6087133267        0.7883033253        0.8562452483
 C          3.3212322839       -0.4738441973        0.6010555030
 C          2.9101975520       -1.2703575318       -0.4000514255
 C          3.4471141476       -2.6200365424       -0.8060610988
 C          4.9721010333       -2.7918493750       -0.8451216558
 C          5.7592252136       -1.5323010534       -1.2354440778
 H          5.0809661784       -0.7704378802       -1.6236049322
 H          6.4571086178       -1.7843084036       -2.0361729087
 C          6.5692860093       -0.9503634765       -0.0742925163
 H          7.3627009918       -0.3187801984       -0.4813428018
 H          7.0496194490       -1.7709996277        0.4630885958
 C          5.7773102327       -0.0988782174        0.9174319118
 H          5.4851510865        0.8432426983        0.4455344642
 H          6.4403901484        0.1525792022        1.7486914257
 C          4.5049156216       -0.7515709541        1.4819548334
 H          4.2836607435       -0.2803012025        2.4433320096
 H          4.6472347174       -1.8173583523        1.6425765800
 H          5.1814273954       -3.5878078398       -1.5618342682
 H          5.3246171122       -3.1428922548        0.1236926438
 H          3.0345046591       -2.8034373056       -1.8011344339
 H          3.0216460161       -3.3722736046       -0.1356494540
 O          1.8605626108       -0.9413516462       -1.2036984968
 C          1.1589317892        0.2449371115       -1.0504161246
 O          0.2492177907        0.4008284893       -1.8874288026
 O          2.9512925812        1.5300824613        1.8140300618
 C          0.7565405573        2.3801920564        0.2381063208
 C         -0.6193909286        1.9732066838        0.7011281903
 C         -0.8207905124        1.6291966436        2.0351976729
 C         -2.0422655198        1.1440551615        2.4639344441
 C         -3.0802754586        0.9625652315        1.5659529593
 C         -2.8821146073        1.2899810867        0.2315589020
 C         -1.6701397004        1.8194268207       -0.1894111963
 H         -1.5340458193        2.0632747478       -1.2306452568
 N         -3.9058557284        1.0432413775       -0.7020262482
 S         -4.6298293750       -0.4645513144       -0.6196104116
 O         -5.0194059086       -0.7818538115       -1.9762661389
 O         -5.7082368374       -0.4199184253        0.3384274162
 C         -3.3795852357       -1.6045377934       -0.0425708197
 C         -3.6759616892       -2.4341691830        1.0205866821
 C         -2.7146295233       -3.3255416576        1.4681372186
 C         -1.4744123537       -3.3697793044        0.8503162931
 C         -1.1929706886       -2.5318678398       -0.2172106499
 C         -2.1519399887       -1.6415492060       -0.6733536603
 H         -1.9300844733       -0.9772421794       -1.4939609476
 H         -0.2271978551       -2.5509430282       -0.6981100249
 H         -0.7221449528       -4.0585467874        1.2014411707
 H         -2.9325085807       -3.9782438504        2.2980950350
 H         -4.6491837093       -2.3589757497        1.4780872179
 H         -3.6328673427        1.2506522118       -1.6523105022
 H         -4.0335196607        0.5647567146        1.8750588120
 H         -2.1856358225        0.8898971220        3.5029181617
 H          0.0010029914        1.7321856903        2.7296910473
 H          1.2714400533        2.8759072644        1.0713838629
 C          0.7585389113        3.3069923784       -0.9587990557
 C          0.3170716399        4.7284637619       -0.7833817790
 C          1.7627940091        4.4168134162       -1.0241062519
 H          2.1922644595        4.6666680041       -1.9828315579
 H          2.4520142014        4.5171235141       -0.1985112702
 H         -0.2478156718        5.1960572828       -1.5753312515
 H          0.0229637924        5.0382306882        0.2080199149
 H          0.5135807398        2.8117064655       -1.8905164331
