  62
        -98.94939805
 C         -0.4268524894       -1.8451341803       -0.1280708914
 C         -1.5998933979       -1.9610942645        0.6525902820
 C         -2.7565289896       -1.1877345971        0.1883797625
 C         -2.6496069089       -0.4247925767       -0.9150336647
 C         -3.7649635743        0.3563941836       -1.5583174701
 C         -4.0315022307        1.7360993553       -0.9424923124
 C         -4.6732397108        1.7218208126        0.4448072429
 H         -5.5703373220        1.1019280715        0.4249140937
 H         -4.9885023811        2.7444164256        0.6624646946
 C         -3.7440047579        1.2446853370        1.5700492053
 H         -3.8261136382        1.9215749620        2.4241095931
 H         -2.7016668691        1.2884074803        1.2425698746
 C         -4.0440582799       -0.1647232328        2.0808470399
 H         -5.0255307328       -0.1784381844        2.5610669763
 H         -3.2956300742       -0.4182597973        2.8364883613
 C         -4.0162095014       -1.2506624749        0.9978230253
 H         -4.8903561822       -1.1594626893        0.3528128232
 H         -4.0445431132       -2.2256386747        1.4911716905
 H         -4.7001941427        2.2708074482       -1.6214151496
 H         -3.0927106743        2.2910916844       -0.8959907302
 H         -3.4799464409        0.4956268408       -2.6033468860
 H         -4.6813952926       -0.2344950809       -1.5264418520
 O         -1.4938690248       -0.3174329886       -1.6224329677
 C         -0.3518144083       -1.0082247605       -1.2415728562
 O          0.6391179758       -0.8048631565       -1.9665450258
 H          0.8068033301       -0.1537426839        1.2661268622
 C          1.8049503081       -0.4902163142        1.0271699043
 C          1.9968888096       -1.7548600806        0.4879506672
 C          3.2958926192       -2.1653818456        0.2098932096
 C          4.3666427883       -1.3248869527        0.4576733808
 C          4.1678469386       -0.0566396759        0.9715831713
 C          2.8729519599        0.3621358762        1.2550770062
 N          2.6264808269        1.6434179502        1.7752271433
 S          1.2856487847        2.4995071007        1.2799835552
 O          1.5896969554        3.8701882913        1.6408260088
 O          0.0886955463        1.9576084560        1.8751105863
 C          1.1889394797        2.3813339837       -0.4969603375
 C          2.3295912256        2.2993065241       -1.2685575830
 C          2.2008425075        2.2684747223       -2.6473892302
 C          0.9457926210        2.3338449159       -3.2297428437
 C         -0.1895120323        2.4285413525       -2.4423971431
 C         -0.0656217666        2.4505252565       -1.0640486445
 H         -0.9197458251        2.5037708206       -0.4062594940
 H         -1.1681870778        2.4693110638       -2.8936325838
 H          0.8500657664        2.3019544785       -4.3035846435
 H          3.0817548714        2.1856508026       -3.2634432791
 H          3.2991193211        2.2460783019       -0.8010665170
 H          3.4376190245        2.2389304151        1.8570549124
 H          5.0019780202        0.6033293460        1.1556682331
 H          5.3694581291       -1.6580511079        0.2383384924
 H          3.4689439678       -3.1460830375       -0.2018833473
 C          0.8001005830       -2.6449305261        0.2615197381
 H          0.5455594032       -3.1236784278        1.2200442695
 C          1.0574928401       -3.7284839897       -0.7684377765
 C          1.5976333500       -5.0645765710       -0.3564024421
 C          0.1677720966       -4.9342344213       -0.7842468510
 H         -0.1290048219       -5.3451896414       -1.7374711347
 H         -0.6012277010       -4.9892605422       -0.0273225273
 H          1.7963970289       -5.2236683700        0.6928052326
 H          2.2838013919       -5.5701209111       -1.0192369081
 H          1.3661145555       -3.3222227771       -1.7252511599
 O         -1.6825554284       -2.6924453535        1.6777895268
