  62
        -98.94264941
 C         -1.6598773633       -1.3092267721       -0.2742151438
 C         -0.6109777717       -1.7345543386       -1.1181659875
 C          0.4335786874       -2.5713250342       -0.5031439145
 C          0.3549693893       -2.8445589492        0.8111069462
 C          1.3477077513       -3.5931605830        1.6578839299
 C          2.3705282741       -2.6203496513        2.2717566618
 C          3.6188022397       -2.3892644738        1.4229938473
 H          4.2150601852       -1.6259363536        1.9289639812
 H          4.2116548504       -3.3063086728        1.3914841066
 C          3.3377322888       -1.9249759979       -0.0077076769
 H          2.5426901169       -1.1758415595        0.0115138923
 H          4.2372741582       -1.4362137316       -0.3862618521
 C          2.9594948662       -3.0716831158       -0.9558688509
 H          3.1761967078       -4.0239639201       -0.4724803749
 H          3.5880118037       -3.0256616438       -1.8475599388
 C          1.5057901869       -3.0554258460       -1.4424774679
 H          1.4239227767       -2.3983631193       -2.3142760761
 H          1.2339008820       -4.0606048051       -1.7833111684
 H          2.6843967811       -3.0054389183        3.2445540160
 H          1.8691467232       -1.6627256446        2.4421056918
 H          1.8401654422       -4.3733974270        1.0847794977
 H          0.7777200620       -4.0569783012        2.4656545071
 O         -0.6683445882       -2.4029917528        1.5933161630
 C         -1.6819940703       -1.6128389687        1.0866723432
 O         -2.5360657845       -1.2652361334        1.9259672066
 O         -0.5423171808       -1.4167091119       -2.3380995862
 C         -2.7335087180       -0.3926728458       -0.8337024462
 C         -2.6629709850        0.9299632233       -0.1107368610
 C         -3.7704383071        1.6070610748        0.3806860194
 C         -3.6084859097        2.7877741421        1.0862566889
 C         -2.3497394823        3.3059208615        1.3270220771
 C         -1.2354298770        2.6439656477        0.8213508805
 C         -1.4038990270        1.4853242238        0.0835098015
 H         -0.5371174846        0.9680712965       -0.3015418424
 N          0.0578932203        3.1478456021        1.0225449652
 S          1.3970330579        2.1517875181        1.1072570532
 O          1.0702082927        0.8187134294        1.5589984000
 O          2.3419066811        2.8772176991        1.9320984598
 C          2.0430914137        2.0911087012       -0.5536867246
 C          3.2908909585        1.5174113963       -0.7044109455
 C          3.8458914571        1.4284401456       -1.9702456360
 C          3.1471925401        1.9172435493       -3.0632570243
 C          1.9020484696        2.5009429792       -2.8950632546
 C          1.3406424951        2.5924804701       -1.6299906931
 H          0.3722485859        3.0404453528       -1.4797967459
 H          1.3600146470        2.8836011233       -3.7449558857
 H          3.5757944036        1.8441304073       -4.0502818616
 H          4.8172054337        0.9787771510       -2.0997737047
 H          3.8003890517        1.1564904530        0.1747170539
 H          0.1282683543        3.9260059278        1.6604464754
 H         -2.2247024019        4.2096179055        1.9036920278
 H         -4.4757919843        3.3017468713        1.4721684622
 H         -4.7579741674        1.2037538914        0.2279608406
 H         -2.4615372986       -0.2300029784       -1.8873637660
 C         -4.0966010184       -1.0472508833       -0.7740623510
 C         -5.1524298658       -0.6855629480       -1.7747451263
 C         -4.4792953399       -2.0221878286       -1.8457217584
 H         -5.0405330576       -2.9009846313       -1.5659090056
 H         -3.7630944293       -2.1951748345       -2.6356278180
 H         -6.1807765027       -0.6484601428       -1.4483079241
 H         -4.8996354760        0.0481804813       -2.5249299181
 H         -4.4043670893       -1.2722609918        0.2409659373
