  62
        -98.93793332
 C          2.2120791646        0.9053521019       -0.0500642385
 C          3.2263161039        0.7784347760        0.9320688884
 C          4.1402070062       -0.3629056748        0.7839106971
 C          3.9456389137       -1.2283991692       -0.2275934942
 C          4.8295111408       -2.3978699667       -0.5562538835
 C          6.1046451495       -1.9084744828       -1.2725657998
 C          7.3955464459       -2.1295101520       -0.4837559262
 H          7.6682214800       -3.1854901882       -0.5388067612
 H          8.1834346893       -1.5595107490       -0.9807054173
 C          7.3508565282       -1.7340297042        0.9953630782
 H          6.8568275157       -2.5187273509        1.5702448201
 H          8.3847052673       -1.6962207932        1.3450730853
 C          6.6747017997       -0.3938973081        1.3121555110
 H          6.7030409699        0.2659419598        0.4448374753
 H          7.2462367349        0.0957228441        2.1031848736
 C          5.2239796774       -0.5113619452        1.8159115357
 H          5.0963794937       -1.4597913691        2.3450222912
 H          5.0372635820        0.2925615203        2.5339075388
 H          6.1996094637       -2.4169446209       -2.2332390406
 H          5.9872325033       -0.8449348180       -1.4908350398
 H          5.0834990607       -2.9342703656        0.3553300478
 H          4.2595453070       -3.0630993150       -1.2053298643
 O          2.9440468675       -1.0901387447       -1.1341011747
 C          2.0543893105       -0.0269038422       -1.0750291670
 O          1.1998436077       -0.0336003258       -1.9826015572
 O          3.3611841801        1.5868673133        1.8889169693
 C          1.2450472693        2.0723223447        0.0722208486
 C         -0.1046370337        1.5232984178        0.4623374846
 C         -0.3581483396        1.2280810771        1.7992237894
 C         -1.5592526679        0.6611118950        2.1806917142
 C         -2.5292713415        0.3670319371        1.2375981938
 C         -2.2777364855        0.6394645653       -0.0997071305
 C         -1.0795516587        1.2314058176       -0.4782771804
 H         -0.8929332221        1.4257232055       -1.5224605568
 N         -3.2490719051        0.3339846925       -1.0680492014
 S         -4.0067867515       -1.1613481447       -0.9983611386
 O         -3.1669523265       -2.1677428031       -0.3905984864
 O         -4.4517659777       -1.4232817172       -2.3500731951
 C         -5.4331880592       -0.8545734701        0.0251300613
 C         -5.7000164814       -1.6775636105        1.1016193431
 C         -6.8213725876       -1.4254844109        1.8769684019
 C         -7.6522670313       -0.3610462466        1.5631234138
 C         -7.3721152645        0.4544918568        0.4767600427
 C         -6.2536982792        0.2071072870       -0.3028915548
 H         -6.0019869456        0.8150682505       -1.1556258351
 H         -8.0203023123        1.2815705748        0.2358410869
 H         -8.5231099124       -0.1659268075        2.1688089436
 H         -7.0405460044       -2.0589781714        2.7214549728
 H         -5.0217189653       -2.4893789246        1.3117816887
 H         -2.9502617478        0.5370582227       -2.0113523175
 H         -3.4630398230       -0.0873088857        1.5258700333
 H         -1.7434031403        0.4419236797        3.2214721111
 H          0.4079946071        1.4363991237        2.5329610439
 H          1.6231002150        2.6737433654        0.9096779526
 C          1.2210005197        2.9326731811       -1.1734833488
 C          0.5858123276        4.2887842382       -1.1120411740
 C          2.0741213237        4.1629262405       -1.2305266567
 H          2.5416337735        4.4210747295       -2.1689919950
 H          2.6778288440        4.3927529912       -0.3649242735
 H          0.0291917996        4.6374652242       -1.9683984747
 H          0.1773641501        4.6021178860       -0.1633175087
 H          1.1162294451        2.3631927551       -2.0889799734
