  62
        -98.94085267
 C         -0.1671315077       -2.1121077416        0.2837875147
 C         -0.9191201985       -1.7483400706       -0.8593944325
 C         -2.2923500512       -1.2490889636       -0.6180054483
 C         -2.7655116605       -1.1737703660        0.6387559570
 C         -4.1110162106       -0.7468675156        1.1895425589
 C         -5.1763555180       -0.1572458580        0.2706589264
 C         -4.8780903794        1.2629692638       -0.2158964825
 H         -5.5873113569        1.5166784625       -1.0061944968
 H         -5.0453597532        1.9525438321        0.6151588056
 C         -3.4577779113        1.5026689553       -0.7230812842
 H         -3.3498355051        2.5682653415       -0.9450837184
 H         -2.7422363943        1.2721627740        0.0679361247
 C         -3.0691535725        0.7336952360       -1.9835208487
 H         -3.7533009922        0.9891223531       -2.7961512500
 H         -2.0667934578        1.0618101193       -2.2758233578
 C         -3.0374569735       -0.7953671329       -1.8402897345
 H         -2.4913306230       -1.1981396614       -2.6988255418
 H         -4.0410606367       -1.2133512316       -1.8663901042
 H         -5.3571865929       -0.8258136905       -0.5660864458
 H         -6.1036777388       -0.1183923567        0.8483315115
 H         -4.5229822040       -1.6411611067        1.6696520360
 H         -3.9004721668       -0.0360573116        1.9950826742
 O         -2.0087249640       -1.5582666942        1.7095866686
 C         -0.7116248131       -2.0135054053        1.5663198762
 O         -0.1534526246       -2.3019877417        2.6432609869
 O         -0.4954965699       -1.8318399977       -2.0418012412
 C          1.2750666628       -2.5914206069        0.2411547615
 C          2.2296533254       -1.4202209466        0.2930157173
 C          3.2784462138       -1.4057902688        1.2053658230
 C          4.1463345656       -0.3307367891        1.2655272007
 C          3.9660321366        0.7620937407        0.4374738336
 C          2.9179654540        0.7608743117       -0.4758597030
 C          2.0723755128       -0.3365579356       -0.5599284887
 H          1.2812147027       -0.3317449609       -1.2936355232
 N          2.6956629828        1.8714525998       -1.3102968921
 S          1.1550969741        2.5268189370       -1.3790780662
 O          0.2837200556        1.6862583418       -2.1537413789
 O          1.3607706916        3.8677078426       -1.8839792680
 C          0.6270837027        2.6002639530        0.3224538942
 C          0.9887800478        3.7003681987        1.0754892537
 C          0.6466055308        3.7371156782        2.4171914172
 C         -0.0353192556        2.6711783593        2.9849667492
 C         -0.3900384664        1.5733888358        2.2165544693
 C         -0.0590156130        1.5362176495        0.8710153786
 H         -0.3245692773        0.6968344298        0.2474716833
 H         -0.9100158464        0.7361934832        2.6571983090
 H         -0.2943385959        2.6922632019        4.0317709328
 H          0.9157425394        4.5909483085        3.0177241670
 H          1.5141384758        4.5084598609        0.5926875051
 H          3.3770112479        2.6091347243       -1.1974704888
 H          4.6285352523        1.6122667659        0.4954035838
 H          4.9590906428       -0.3348693508        1.9753703024
 H          3.4021985305       -2.2401618090        1.8794031637
 H          1.4200951292       -3.1744590461        1.1615419692
 C          1.6039205758       -3.4828648015       -0.9401622690
 C          2.7299708394       -4.4636522127       -0.8202069596
 C          1.3126607938       -4.9496209229       -0.8568795936
 H          0.9574162319       -5.4536071254       -1.7430047669
 H          0.8769165494       -5.3207686217        0.0596095239
 H          3.3548703201       -4.6351166887       -1.6831216829
 H          3.2562904939       -4.5132087536        0.1208594281
 H          1.4551779867       -3.0000544966       -1.8968934318
