  62
        -98.94489799
 C          1.0635434492        1.4363276895       -0.6744503716
 C          2.3222694680        1.6807648138       -0.0640729542
 C          3.3267835292        0.6175598883       -0.1818759529
 C          3.0139938293       -0.5062844840       -0.8521014619
 C          3.9218235893       -1.6912327439       -1.0077954954
 C          3.7241083789       -2.7049393971        0.1277381095
 C          3.7270388882       -2.0819852946        1.5233195006
 H          2.8602286775       -1.4245150515        1.6223739846
 H          3.6011672983       -2.8938169364        2.2429654819
 C          5.0005564876       -1.2954649299        1.8636230592
 H          5.8040660700       -1.5777810400        1.1822394121
 H          5.3216258260       -1.5652737546        2.8719931557
 C          4.8314329745        0.2245918537        1.8422552296
 H          3.9693357833        0.5073915637        2.4516924947
 H          5.7170183300        0.6723007568        2.3013815789
 C          4.6674662220        0.8558260820        0.4540669600
 H          4.7552736000        1.9401219463        0.5698084918
 H          5.4710453492        0.5150081305       -0.2021879562
 H          4.5141955982       -3.4551274944        0.0611047318
 H          2.7645489082       -3.2021944296       -0.0200316029
 H          3.6937433469       -2.1744951658       -1.9590649720
 H          4.9544334285       -1.3472014377       -1.0258445268
 O          1.8084837845       -0.7001235497       -1.4403543866
 C          0.8040914157        0.2566464095       -1.3736603006
 O         -0.2335170001       -0.0774235992       -1.9777074634
 H         -1.6047341185        0.3849923327       -0.2302315718
 C         -1.6902223823        1.0710842548        0.5967143809
 C         -0.9282786108        2.2314671031        0.6078088319
 C         -1.0545548203        3.1063563232        1.6803927100
 C         -1.9308066154        2.8280117583        2.7144700504
 C         -2.6953529950        1.6761547127        2.6965119519
 C         -2.5694930014        0.7891821504        1.6316392454
 N         -3.2909307420       -0.4087562227        1.6184878791
 S         -3.6526716389       -1.2320770548        0.2138572408
 O         -4.0448119094       -0.3376400774       -0.8500368965
 O         -4.6661773179       -2.1835642069        0.6264455024
 C         -2.1801143509       -2.1379957393       -0.2052225760
 C         -1.3063609000       -2.5227177320        0.7912590468
 C         -0.2046652830       -3.2914223950        0.4531722993
 C         -0.0017638625       -3.6676498211       -0.8653984943
 C         -0.8876988962       -3.2718158907       -1.8534598319
 C         -1.9882877414       -2.4990192272       -1.5225229655
 H         -2.6901049709       -2.1538858628       -2.2647620506
 H         -0.7202930394       -3.5512820995       -2.8812619656
 H          0.8542502394       -4.2696955069       -1.1290224970
 H          0.4922323454       -3.5915631177        1.2203233667
 H         -1.4877166188       -2.2102819358        1.8067442018
 H         -3.9949545140       -0.5160229861        2.3326031662
 H         -3.3804416785        1.4574008563        3.5012011691
 H         -2.0215328193        3.5154656816        3.5416974593
 H         -0.4519481705        4.0023298722        1.7048513780
 C          0.0212978826        2.5319879941       -0.5276358956
 H          0.5900707177        3.4329895860       -0.2588269783
 C         -0.7562940350        2.8208135557       -1.7964635111
 C         -1.3359660712        4.1878404432       -1.9967835241
 C         -0.1693891194        3.7389809457       -2.8240034213
 H         -0.3287241168        3.5123652567       -3.8674285167
 H          0.7994147187        4.1684944804       -2.6134466585
 H         -1.1573313649        4.9264670511       -1.2299297974
 H         -2.3022962907        4.2707080799       -2.4702606902
 H         -1.3307881406        1.9753830857       -2.1531575650
 O          2.5951032202        2.7500901861        0.5455557737
