  62
        -98.94788252
 C          1.1126867498        1.1821762499        0.4878743307
 C          1.5026892400        0.4704921305       -0.6720179796
 C          2.2939659797       -0.7443355198       -0.4332552500
 C          2.5037376892       -1.1697013906        0.8255153998
 C          3.2620504588       -2.4060986009        1.2266877594
 C          4.7806047788       -2.1989857513        1.3153706499
 C          5.4962184493       -2.0463504307       -0.0277470497
 H          6.5669204092       -2.1248824310        0.1706952405
 H          5.2248741193       -2.8774724903       -0.6792629103
 C          5.2234609098       -0.7158911203       -0.7438914091
 H          4.8083210797        0.0019166794       -0.0324592488
 H          6.1655499500       -0.2976779803       -1.1053577086
 C          4.2841997201       -0.8231769794       -1.9455198794
 H          4.7530581602       -1.4300818690       -2.7230338796
 H          4.1286267905        0.1803842609       -2.3490541389
 C          2.9098544099       -1.4233084593       -1.6201921102
 H          3.0066403096       -2.4951061694       -1.4469417208
 H          2.2509589902       -1.2579139987       -2.4759078103
 H          5.1982633885       -3.0677227417        1.8294809796
 H          4.9769428588       -1.3209220117        1.9352195605
 H          2.8940578384       -2.6902588914        2.2150881091
 H          3.0454196688       -3.2168080805        0.5302756288
 O          2.0175874790       -0.5105611011        1.9129520000
 C          1.3613702693        0.7033439191        1.7740873005
 O          1.0494331791        1.2452960686        2.8547031507
 O          1.2221556804        0.8304671712       -1.8432489695
 C          0.3947184701        2.5139994601        0.3578929012
 C         -0.9362847697        2.3170052908       -0.3260953193
 C         -1.2946974192        2.9473602915       -1.5098581791
 C         -2.5377293891        2.7179417221       -2.0738105096
 C         -3.4438010395        1.8662397420       -1.4706170103
 C         -3.0997597100        1.2391370712       -0.2771345506
 C         -1.8522213901        1.4655432807        0.2817440899
 H         -1.5925149305        0.9838193001        1.2136751097
 N         -4.0232769203        0.4077110111        0.3768619387
 S         -3.5543059009       -1.0042488195        1.1298219080
 O         -4.7992730811       -1.7029716493        1.3670085372
 O         -2.7556301912       -0.7181340003        2.2939679784
 C         -2.6021043607       -1.8957779690       -0.0842325922
 C         -3.2823888305       -2.4991821183       -1.1248784427
 C         -2.5635311503       -3.1835654079       -2.0902758129
 C         -1.1816382204       -3.2545820582       -1.9976630225
 C         -0.5147940006       -2.6482563089       -0.9452481120
 C         -1.2284295107       -1.9551765793        0.0196214482
 H         -0.7388007609       -1.4682942199        0.8494931086
 H          0.5587691994       -2.6990344892       -0.8694588616
 H         -0.6179103803       -3.7876075879       -2.7467333526
 H         -3.0792475002       -3.6597214073       -2.9084422433
 H         -4.3583255305       -2.4391619380       -1.1473569430
 H         -4.8953058502        0.2821935915       -0.1163779317
 H         -4.4141898294        1.6923985924       -1.9096945507
 H         -2.8032212887        3.2088092227       -2.9976133494
 H         -0.6009860389        3.6136644417       -1.9943948885
 H          0.1938922499        2.8493276396        1.3860087413
 C          1.2916945205        3.5287954903       -0.3197730779
 C          1.0798293208        4.9925500902       -0.0816844872
 C          2.2689203604        4.3007229197        0.5127167028
 H          3.2462666306        4.5074781797        0.1028877732
 H          2.2742667401        4.1107410191        1.5766623027
 H          1.2434293012        5.6784191507       -0.8989350767
 H          0.2773781606        5.2790313100        0.5812661827
 H          1.6187228608        3.2107854108       -1.3026338080
