  62
        -98.93594919
 C         -2.5216304053       -0.3223377219        0.5804173880
 C         -2.2337902375        0.3224639783       -0.6471797285
 C         -2.1040368232        1.7916274197       -0.6030787181
 C         -2.1852773512        2.4289806427        0.5762020816
 C         -2.1292536381        3.9086467294        0.8700184293
 C         -1.1361122770        4.7649849012        0.0774100030
 C          0.2033750039        4.0826821946       -0.2361024743
 H          1.0184043064        4.7360781564        0.0816551708
 H          0.2976807652        3.1496339464        0.3242759147
 C          0.3857179065        3.7846359283       -1.7254700779
 H          1.4515817958        3.6568691564       -1.9273428863
 H          0.0379565276        4.6423611887       -2.3064071111
 C         -0.3195450178        2.5207167923       -2.2124393225
 H         -0.1684961636        2.4407701283       -3.2920296604
 H          0.1485936232        1.6465182429       -1.7521194165
 C         -1.8282737301        2.4578239229       -1.9208544536
 H         -2.2820657750        3.4451804988       -1.9733894702
 H         -2.2910165265        1.8214312170       -2.6802955019
 H         -0.9572814094        5.6638575920        0.6704111733
 H         -1.5972155128        5.0898968990       -0.8542083193
 H         -3.1367154388        4.3153399613        0.7366586969
 H         -1.8968159723        3.9742657574        1.9361777836
 O         -2.3908113547        1.7585146021        1.7481062431
 C         -2.5512014184        0.3855975045        1.7815996353
 O         -2.7138000891       -0.0812592554        2.9290843557
 H         -0.0984893110       -1.3607437057        1.1098233805
 C         -0.2237300778       -2.0744787252        0.3063059123
 C         -1.5039668573       -2.4691370677       -0.0627072372
 C         -1.6453978606       -3.3923920492       -1.0891277938
 C         -0.5278056554       -3.8810619513       -1.7443130655
 C          0.7411368050       -3.4505403081       -1.4050880170
 C          0.8924647442       -2.5345444740       -0.3692246147
 N          2.1653816910       -2.0782413062        0.0180316167
 S          2.2880145294       -0.4894319381        0.5809853729
 O          1.9917798552       -0.4779297183        1.9936059352
 O          1.5127448516        0.4050124563       -0.2454467783
 C          4.0313656865       -0.2024896023        0.3381035149
 C          4.4551460098        0.5127600120       -0.7656085482
 C          5.8147222172        0.6997990311       -0.9615422964
 C          6.7218499553        0.1677130165       -0.0576707805
 C          6.2811739420       -0.5476580579        1.0461426854
 C          4.9234137218       -0.7365905095        1.2489194770
 H          4.5323015136       -1.2760602963        2.0957464799
 H          6.9891149866       -0.9575913917        1.7481989639
 H          7.7790747739        0.3138102493       -0.2129221733
 H          6.1595729877        1.2583334443       -1.8166935261
 H          3.7116056297        0.9113876477       -1.4373350506
 H          2.8804255021       -2.2859658009       -0.6660283084
 H          1.6077573127       -3.8126304395       -1.9371349429
 H         -0.6496840935       -4.5922104767       -2.5473550777
 H         -2.6293592477       -3.7051112085       -1.3977728699
 C         -2.6536798661       -1.8339646776        0.6798338897
 H         -2.5198547365       -2.0555122900        1.7526736588
 C         -4.0172615667       -2.3836382011        0.2914566650
 C         -5.2500673809       -1.5400270854        0.4172183047
 C         -4.7476850832       -1.9355838497       -0.9371628777
 H         -5.3090575446       -2.6719851526       -1.4936069298
 H         -4.2744561166       -1.1875133279       -1.5523006170
 H         -6.1517967816       -2.0018799592        0.7905262630
 H         -5.1207945193       -0.5144515835        0.7326981074
 H         -4.1228822241       -3.4284960170        0.5676021490
 O         -2.1166155705       -0.2820830301       -1.7438316287
