  62
        -98.94947679
 C         -2.0430967451        0.4345910216        0.3206623983
 C         -1.3517771863        1.3391224138        1.1596271462
 C         -0.9445130320        2.6057492380        0.5409951892
 C         -1.1918565338        2.8179032459       -0.7645275778
 C         -0.8395662419        4.0567417588       -1.5427270388
 C          0.6113184470        4.0789937686       -2.0429653696
 C          1.6612972805        4.3750742905       -0.9715558215
 H          2.5949097386        4.5979071288       -1.4920853672
 H          1.3731266676        5.2698071376       -0.4177917691
 C          1.9088701220        3.2167839244        0.0046509805
 H          1.5350847869        2.2887631841       -0.4360828343
 H          2.9849527561        3.0851008350        0.1457949670
 C          1.2922229436        3.4141820309        1.3894839525
 H          1.7541690847        4.2787553714        1.8719880955
 H          1.5195288833        2.5338819011        1.9942552343
 C         -0.2288452313        3.6148539562        1.3902208947
 H         -0.5878372931        3.4942870286        2.4157144991
 H         -0.4716555422        4.6226580534        1.0528267675
 H          0.8340954277        3.1159463288       -2.5100794620
 H          0.6803677840        4.8497291260       -2.8145471940
 H         -1.5040261376        4.0770035017       -2.4093392045
 H         -1.0316493879        4.9426007547       -0.9360710276
 O         -1.8332175385        1.9108499851       -1.5464691949
 C         -2.2641062723        0.6985811329       -1.0314671658
 O         -2.8354556998       -0.0361779356       -1.8607682463
 H          0.0455832033       -1.0743380816        0.2236921296
 C         -0.5006585844       -1.9029270669       -0.1953527147
 C         -1.8613158245       -2.0081826919        0.0630119936
 C         -2.5547032676       -3.0874326401       -0.4661645910
 C         -1.9018309393       -4.0019452563       -1.2759512000
 C         -0.5637317026       -3.8507776262       -1.5883048527
 C          0.1448105019       -2.7836111656       -1.0441696221
 N          1.5028401882       -2.5988397602       -1.3300041152
 S          2.2635107046       -1.1114209312       -1.2354073669
 O          1.3676009085       -0.0064658586       -1.4800956452
 O          3.3848565877       -1.2356259177       -2.1435241073
 C          2.8876839897       -1.0928484193        0.4329589173
 C          2.3062643616       -0.3030646736        1.4027297504
 C          2.8079991603       -0.3440445604        2.6944474962
 C          3.8803750219       -1.1691621140        2.9936583906
 C          4.4594955097       -1.9537837595        2.0071354433
 C          3.9595941392       -1.9181458566        0.7161888731
 H          4.3850808650       -2.5028099303       -0.0823069028
 H          5.2955549387       -2.5926362223        2.2415471041
 H          4.2661912390       -1.1979707650        4.0004443726
 H          2.3488780893        0.2663878921        3.4562374566
 H          1.4722588921        0.3322856756        1.1470872296
 H          1.8736046489       -3.1762276872       -2.0689898632
 H         -0.0702747953       -4.5439014901       -2.2524035031
 H         -2.4516589703       -4.8329813431       -1.6915294947
 H         -3.6072228151       -3.2029268883       -0.2655594172
 C         -2.4936458871       -0.9061347091        0.8772508001
 H         -2.0971422746       -0.9508703525        1.9025026819
 C         -4.0045698512       -0.9811622735        0.9317111581
 C         -4.6817601917       -1.8449020523        1.9525405231
 C         -4.7209798764       -0.3532579059        2.0883016646
 H         -5.6519797488        0.1601268064        1.9002821411
 H         -4.1146450074        0.1094569113        2.8531365497
 H         -5.5905566938       -2.3563900096        1.6735491261
 H         -4.0537295993       -2.3989056129        2.6334736973
 H         -4.4591770960       -0.8897016463       -0.0486625918
 O         -1.0885379361        1.1015900869        2.3703334077
