  62
        -98.94626254
 C         -1.8366004604       -1.2859344784       -0.0483159105
 C         -2.7439335603       -0.5928613278        0.7864930190
 C         -3.2260402394        0.6956090125        0.2752451187
 C         -2.8112884486        1.1339027721       -0.9275043012
 C         -3.2182412176        2.4244760223       -1.5866139314
 C         -2.3931766871        3.6412761719       -1.1440671212
 C         -2.6721261175        4.1350200621        0.2759061686
 H         -2.1838191770        5.1060130219        0.3803150488
 H         -3.7434654474        4.2942600028        0.4019523282
 C         -2.1564130885        3.2028692920        1.3815867590
 H         -1.4305778487        2.5030114015        0.9587354993
 H         -1.6290793285        3.7890785017        2.1382122591
 C         -3.2494700692        2.4090692426        2.0979708285
 H         -2.7747163099        1.7624798324        2.8410735188
 H         -3.9125169091        3.0963703031        2.6278124682
 C         -4.0955593493        1.5252586030        1.1710417983
 H         -4.6841362500        0.8441717134        1.7905731081
 H         -4.7762294687        2.1401394634        0.5829546379
 H         -1.3309547572        3.4041443513       -1.2394084607
 H         -2.6143457064        4.4555745719       -1.8377578514
 H         -3.0769835872        2.2845428121       -2.6604814214
 H         -4.2751885776        2.6146218729       -1.3989561719
 O         -1.9586873387        0.4239889316       -1.7118929407
 C         -1.4196006996       -0.7816598587       -1.2812010104
 O         -0.6067387095       -1.2911820192       -2.0713857200
 O         -3.1203104411       -1.0208788375        1.9116294589
 C         -1.2116361913       -2.5765220487        0.4512029499
 C          0.2773980487       -2.3690252195        0.5879960305
 C          1.2320706985       -3.2352170901        0.0739097610
 C          2.5810858086       -2.9447721408        0.1957914515
 C          3.0065640890       -1.7911598810        0.8274994616
 C          2.0584201992       -0.9236224204        1.3552320011
 C          0.7110497791       -1.2206157397        1.2404238806
 H         -0.0236206507       -0.5388094292        1.6518716502
 N          2.4764408796        0.2691922894        1.9793386312
 S          3.4684146406        1.2623284187        1.0612607116
 O          4.8251197103        0.7833987680        1.1479383222
 O          3.2377748711        2.5991806789        1.5621265314
 C          2.8759837012        1.1043911189       -0.6130000887
 C          3.6404781213        0.4415982284       -1.5503862783
 C          3.1429113117        0.2915614386       -2.8347263785
 C          1.8967145622        0.8038630393       -3.1566878191
 C          1.1425468221        1.4720188298       -2.2050320495
 C          1.6317936316        1.6197846396       -0.9183623293
 H          1.0703784116        2.1327483600       -0.1516523895
 H          0.1676053925        1.8551011103       -2.4614114599
 H          1.5018269125        0.6779189094       -4.1520600592
 H          3.7246250818       -0.2295571118       -3.5779075282
 H          4.6050344309        0.0600659179       -1.2579841878
 H          1.7110522698        0.8056169299        2.3622423408
 H          4.0515264491       -1.5425498316        0.9185234021
 H          3.3116495884       -3.6244856413       -0.2151299281
 H          0.9211225782       -4.1330371599       -0.4339554391
 H         -1.6318425818       -2.7382868183        1.4550654597
 C         -1.5890393316       -3.7465392885       -0.4305175502
 C         -1.6320052126       -5.1331488285        0.1368232199
 C         -2.9064501621       -4.4246485478       -0.2079869607
 H         -3.4673525519       -4.7571854175       -1.0684248409
 H         -3.5239581422       -4.0576098973        0.5989663390
 H         -1.3201589228       -5.9563754187       -0.4879407399
 H         -1.3866461031       -5.2545502685        1.1810896000
 H         -1.2580581211       -3.6201134588       -1.4547969501
