  62
        -98.94331045
 C         -2.5137252865       -1.0731536338       -0.1267315413
 C         -3.6423168515       -0.8465880465        0.6982803725
 C         -4.6605156935        0.0586232540        0.1553047856
 C         -4.4883501853        0.6018231369       -1.0636657835
 C         -5.4463937662        1.5280485795       -1.7625151622
 C         -5.2987333097        3.0009065150       -1.3564778444
 C         -5.8108027088        3.3443995348        0.0428944495
 H         -5.8477111128        4.4334048046        0.1118334391
 H         -6.8311581776        2.9766747962        0.1557549461
 C         -4.9384431092        2.8072540367        1.1861479340
 H         -3.9546476836        2.5347085931        0.7968075161
 H         -4.7819007842        3.5953400442        1.9261572191
 C         -5.5295492882        1.6053846714        1.9231720556
 H         -6.4505843608        1.9022948654        2.4296830322
 H         -4.8147222807        1.2850804703        2.6854901686
 C         -5.8337406881        0.4003033505        1.0234486861
 H         -6.7145387525        0.5988780777        0.4133447701
 H         -6.0370073884       -0.4624284166        1.6626101075
 H         -5.8591483381        3.5960009616       -2.0812035590
 H         -4.2461865573        3.2816421368       -1.4385372187
 H         -5.2366171352        1.4431373549       -2.8308956965
 H         -6.4705907799        1.2003018770       -1.5823674893
 O         -3.3963596913        0.3465765958       -1.8318739062
 C         -2.3738937119       -0.4753276249       -1.3791396470
 O         -1.4250664958       -0.5948353074       -2.1772563089
 O         -3.7906848455       -1.3758633496        1.8321400455
 C         -1.4080918789       -1.9786646745        0.3879966606
 C         -0.1514844628       -1.1637806912        0.5684329366
 C         -0.1430503674       -0.1610226704        1.5355429757
 C          0.9737276645        0.6287993716        1.7257650179
 C          2.1067250172        0.4413510824        0.9521615815
 C          2.1106600812       -0.5564048597       -0.0117370654
 C          0.9887385437       -1.3569138217       -0.1935573858
 H          1.0067703453       -2.1240463311       -0.9517211963
 N          3.2492995331       -0.7408451182       -0.8115485026
 S          4.7571241321       -0.8112788826       -0.0844574574
 O          5.5859845982       -1.5581414355       -1.0054076336
 O          4.6717101634       -1.3257272074        1.2627369334
 C          5.3062862458        0.8823347873       -0.0572686493
 C          5.7297081523        1.4492314638        1.1287974638
 C          6.1697426995        2.7638079398        1.1241523561
 C          6.1792617379        3.4839409378       -0.0605198802
 C          5.7526685592        2.8993010635       -1.2437829193
 C          5.3130236302        1.5852502324       -1.2461108779
 H          4.9756261183        1.0952231381       -2.1443615770
 H          5.7607713411        3.4627358718       -2.1630250864
 H          6.5214410023        4.5068249975       -0.0621439926
 H          6.5019959808        3.2200372947        2.0428023793
 H          5.6994761860        0.8527710987        2.0267466399
 H          3.1449716607       -1.4538664151       -1.5182395852
 H          2.9806945692        1.0565346928        1.0911367996
 H          0.9639798653        1.4009185240        2.4801452026
 H         -1.0306095166       -0.0106255287        2.1350486146
 H         -1.7432382409       -2.3090832313        1.3816146825
 C         -1.2394350090       -3.1951816012       -0.4962898052
 C         -0.5487612530       -4.4128683392        0.0391133969
 C         -2.0291243980       -4.4315504293       -0.1930657827
 H         -2.4149866427       -5.0113936087       -1.0180627879
 H         -2.6830164859       -4.4067095452        0.6662449549
 H          0.0824283168       -4.9841797507       -0.6249523329
 H         -0.1938310458       -4.3768360253        1.0581392479
 H         -1.0949937220       -2.9430097182       -1.5406369068
