  62
        -98.93383801
 C         -2.2108888832       -0.8847742314        0.6207143118
 C         -3.3449678445       -0.8986978908       -0.2248137158
 C         -4.3759388079        0.1260699840        0.0342045542
 C         -4.1889705628        1.0288889741        1.0135813187
 C         -5.0666115430        2.1554508520        1.5187727182
 C         -6.2777297594        2.6240438407        0.7163727407
 C         -5.9409582753        3.3166221512       -0.6039253089
 H         -5.4815064317        4.2829038663       -0.3808277307
 H         -6.8744278529        3.5074384087       -1.1377641464
 C         -4.9885580607        2.5568680059       -1.5239672567
 H         -4.0191365988        2.4406621770       -1.0344050712
 H         -4.8260919466        3.1689282381       -2.4153973437
 C         -5.4793643931        1.1861757118       -1.9850187288
 H         -4.7828545694        0.8271259281       -2.7473399636
 H         -6.4625591795        1.2846936040       -2.4491411360
 C         -5.5603663837        0.1096584743       -0.8896267725
 H         -5.5535853728       -0.8686342560       -1.3785575537
 H         -6.4865809834        0.1870030919       -0.3258442108
 H         -6.8037550677        3.3488641002        1.3436365763
 H         -6.9618162381        1.7970975805        0.5508406780
 H         -4.3944300138        3.0040101389        1.6823470753
 H         -5.4090210149        1.8403942786        2.5107595518
 O         -3.0705609389        1.0110055492        1.7988602897
 C         -2.0738165121        0.0697623662        1.6313960866
 O         -1.1301795653        0.1800172656        2.4419138542
 O         -3.5239392949       -1.7254323912       -1.1574232714
 C         -1.0654239137       -1.8781223305        0.5030178196
 C         -0.1154077044       -1.4874846677       -0.6044949036
 C         -0.5030277215       -1.5101248857       -1.9403379473
 C          0.3899009745       -1.1477425344       -2.9317464213
 C          1.6794137643       -0.7597927318       -2.6142655028
 C          2.0789586568       -0.7396705191       -1.2827955613
 C          1.1800528468       -1.1021359818       -0.2893398521
 H          1.4935251884       -1.0623707687        0.7434065274
 N          3.4002778709       -0.3969258365       -0.9449239608
 S          3.7047979754        0.4370658292        0.4905242007
 O          3.6247834980       -0.4884738465        1.5922183624
 O          2.8723963515        1.6172789442        0.5691765253
 C          5.4081206024        0.8926963281        0.2216488517
 C          5.7234336020        2.1846100624       -0.1534402940
 C          7.0511313233        2.5109384906       -0.3831659922
 C          8.0347837745        1.5445470645       -0.2375201704
 C          7.7029187773        0.2517390418        0.1404158035
 C          6.3780865253       -0.0805397132        0.3733304996
 H          6.0732636573       -1.0681686396        0.6775120566
 H          8.4705743067       -0.4963545499        0.2552704105
 H          9.0668763579        1.8011388854       -0.4169459213
 H          7.3121745091        3.5158712970       -0.6734607747
 H          4.9256874045        2.9039295094       -0.2472109305
 H          3.8974983352        0.0258957979       -1.7177038091
 H          2.3741870508       -0.4770628007       -3.3907009230
 H          0.0767649133       -1.1633399976       -3.9648607573
 H         -1.5132627572       -1.7954990499       -2.1890144818
 H         -0.5132278957       -1.8005264012        1.4502320493
 C         -1.5293540776       -3.3128008418        0.3378843358
 C         -0.5832104846       -4.4197409044        0.6882427300
 C         -1.7739646627       -4.1473516694        1.5568531421
 H         -2.5949063533       -4.8483704768        1.5446814071
 H         -1.6081420418       -3.6854601794        2.5198275725
 H         -0.5842418374       -5.3104310775        0.0791373405
 H          0.3912016746       -4.1423838143        1.0628108683
 H         -2.1898421212       -3.4589169936       -0.5059597552
