  62
        -98.93428043
 C         -1.7035145599       -1.1512652000        0.1417096103
 C         -2.1229238302        0.0469857895       -0.4858943704
 C         -3.5753338203        0.1906687690       -0.7111143404
 C         -4.4128491100       -0.7773744910       -0.3051051797
 C         -5.9100188300       -0.8582420715       -0.4690444796
 C         -6.7215598403        0.4180914784       -0.2078369503
 C         -6.1471235405        1.3431982392        0.8749814791
 H         -6.9363690105        1.5861468795        1.5888670390
 H         -5.3563086403        0.8306445698        1.4253249394
 C         -5.6044999709        2.6583727390        0.3104372483
 H         -6.3062850410        3.0342111784       -0.4374193819
 H         -5.5604289411        3.3951384196        1.1161269978
 C         -4.2091448909        2.5817128291       -0.3083871618
 H         -3.4612579508        2.4326314197        0.4753906983
 H         -3.9936397112        3.5465262288       -0.7741057224
 C         -4.0099265607        1.4749870085       -1.3566830511
 H         -4.9029781307        1.3394428478       -1.9622515910
 H         -3.1878781608        1.7784032383       -2.0111420514
 H         -7.7248485002        0.0997294383        0.0803014800
 H         -6.8257638505        0.9799757078       -1.1350240206
 H         -6.2284552897       -1.6421545112        0.2223780309
 H         -6.1222164999       -1.2160540522       -1.4808324893
 O         -3.9677997096       -1.9001350405        0.3271925010
 C         -2.6227931396       -2.1098851800        0.5743828510
 O         -2.3760349892       -3.1689870895        1.1848331316
 O         -1.3423337805        0.9598422495       -0.8577492610
 C         -0.2413116198       -1.4435265394        0.4344268804
 C          0.4363573299       -0.2246488489        1.0077711796
 C          0.0809130399        0.2007623918        2.2851859594
 C          0.6716047396        1.3152760723        2.8481564287
 C          1.6441832894        2.0168428422        2.1574139882
 C          2.0017621794        1.6033689215        0.8796971384
 C          1.3992205797        0.4885406810        0.3122860591
 H          1.6541453597        0.2195107204       -0.6983448007
 N          2.9774365492        2.2983580013        0.1555223079
 S          3.9558276293        1.5217652609       -0.9448713917
 O          5.1341163491        2.3600588112       -1.0249584422
 O          3.2638179393        1.2996193500       -2.1890129715
 C          4.3802497298       -0.0433001585       -0.1978331707
 C          4.9105480999       -0.0493458276        1.0770895493
 C          5.2430864903       -1.2617313571        1.6590767300
 C          5.0452571406       -2.4422589176        0.9593034007
 C          4.5203938205       -2.4195550385       -0.3233243493
 C          4.1831351501       -1.2093688590       -0.9085120800
 H          3.7654436600       -1.1461446797       -1.9008244500
 H          4.3684190507       -3.3381240689       -0.8678000987
 H          5.3018283808       -3.3856128273        1.4148473613
 H          5.6537867003       -1.2831727164        2.6555587800
 H          5.0604774597        0.8843308328        1.5938745987
 H          3.4527387590        3.0355354118        0.6529051874
 H          2.1094005092        2.8868763626        2.5950880576
 H          0.3796781196        1.6378791429        3.8362576585
 H         -0.6771120399       -0.3502634980        2.8256821498
 H         -0.2611189395       -2.2166373089        1.2202438909
 C          0.5228008303       -2.0394848299       -0.7383792592
 C         -0.1465680795       -2.9678098407       -1.7058117386
 C          0.2927730201       -1.6074599208       -2.1536725895
 H          1.1457112901       -1.5271343910       -2.8124039596
 H         -0.4581097101       -0.8541943112       -2.3333579199
 H          0.4023427607       -3.8290178807       -2.0553912681
 H         -1.2041900594       -3.1470498909       -1.5766730585
 H          1.5452100204       -2.2835432695       -0.4648795292
