  62
        -98.93756062
 C         -1.7906186203       -0.7159152959        0.8936690334
 C         -2.0398841399       -0.4450452227       -0.4714684780
 C         -3.4518907098       -0.4854980947       -0.8951656882
 C         -4.3988040201       -0.7853872500        0.0107809530
 C         -5.8873016801       -0.8238038808       -0.1997560972
 C         -6.5223863700        0.5267899711        0.1724610058
 C         -6.5562426595        1.5558953154       -0.9568375494
 H         -7.2907159994        1.2451484417       -1.7028958481
 H         -6.9048299895        2.4980124876       -0.5272804743
 C         -5.2187481293        1.8013845117       -1.6603535803
 H         -4.4183783295        1.8632267753       -0.9206331704
 H         -5.2753683090        2.7727348792       -2.1556369252
 C         -4.8813277091        0.7292544364       -2.7071791148
 H         -5.7703694292        0.1292203955       -2.9006587420
 H         -4.6245331088        1.2149321116       -3.6508539972
 C         -3.7045088694       -0.1904094820       -2.3485048598
 H         -3.8181959093       -1.1393496147       -2.8829545750
 H         -2.7710788092        0.2580572661       -2.7030347718
 H         -5.9706416402        0.9326122754        1.0244459839
 H         -7.5487240801        0.3530821529        0.5022386264
 H         -6.1257296998       -1.1024470160       -1.2217792159
 H         -6.2775880303       -1.5889758074        0.4744967665
 O         -4.1109443905       -1.0519751234        1.3154258144
 C         -2.8136804206       -1.0146317712        1.7917060046
 O         -2.7016122110       -1.2572254650        3.0109305659
 H          2.1275610199       -0.0695272087        0.4272137812
 C          1.5353096099        0.8040257824        0.6394882067
 C          0.2536125698        0.6697551252        1.1482573170
 C         -0.4759190602        1.8224736567        1.4289289009
 C          0.0573789701        3.0726315454        1.1851163948
 C          1.3352164602        3.2020691726        0.6694132645
 C          2.0772348702        2.0596473511        0.3981042205
 N          3.3628616903        2.1564370782       -0.1490803997
 S          4.5550562301        1.0565328000        0.2432421762
 O          4.4793455696        0.6557321571        1.6289492282
 O          5.7870954503        1.7018391578       -0.1590563167
 C          4.2653238902       -0.3440043653       -0.8177224068
 C          4.5834949399       -1.6037303530       -0.3496310403
 C          4.3964272500       -2.6966500371       -1.1813098049
 C          3.8967800304       -2.5114489035       -2.4609932859
 C          3.5853339907       -1.2396187858       -2.9169076524
 C          3.7743551306       -0.1422296417       -2.0921641979
 H          3.5346493708        0.8570755267       -2.4149018030
 H          3.1918644710       -1.0994488808       -3.9108464433
 H          3.7468992404       -3.3633726768       -3.1054077317
 H          4.6379854898       -3.6867162354       -0.8280789998
 H          4.9575627696       -1.7032191479        0.6571475703
 H          3.7214614805        3.0932019176       -0.2579091243
 H          1.7523499604        4.1785791816        0.4756261697
 H         -0.5240922099        3.9564063366        1.4014738602
 H         -1.4734852003        1.7227912789        1.8358551512
 C         -0.3682687905       -0.6783933934        1.4209270336
 H         -0.4423893308       -0.8040786479        2.5115393242
 C          0.4251063195       -1.8357142164        0.8498859197
 C          1.5653652692       -2.4275857526        1.6207428030
 C          0.2829587092       -3.1890938432        1.4760820365
 H          0.2676613292       -4.0559205464        0.8329558709
 H         -0.3664231411       -3.2710336487        2.3357768767
 H          1.7987487190       -1.9951127078        2.5822704309
 H          2.4299084693       -2.7719355955        1.0736185650
 H          0.5078374898       -1.7889697218       -0.2301542705
 O         -1.1308524297       -0.1739291870       -1.2985124292
