  62
        -98.93876179
 C          1.8386555919        0.7982445195        0.3324772982
 C          2.4357181288        0.1607132426       -0.7796129660
 C          3.5192887204       -0.7935802393       -0.4786479247
 C          3.8463375374       -1.0314536399        0.8033495184
 C          4.9490953422       -1.9149050434        1.3175735528
 C          6.2302355085       -1.0981340100        1.5577882246
 C          7.1385359326       -0.9501929802        0.3376689387
 H          7.9299985734       -0.2465729704        0.6057781975
 H          7.6129168585       -1.9106702421        0.1253994746
 C          6.4500908959       -0.4532510058       -0.9363322555
 H          5.7650680758        0.3605164450       -0.6916720291
 H          7.2191163794       -0.0418017376       -1.5929557297
 C          5.6978187790       -1.5617945895       -1.6878075462
 H          6.0017570862       -1.5577373146       -2.7365835784
 H          5.9951983265       -2.5297536015       -1.2844728050
 C          4.1659549076       -1.4442709981       -1.6707123483
 H          3.8365077500       -0.8441119272       -2.5247988106
 H          3.7293979508       -2.4398473028       -1.8046623536
 H          5.9342339636       -0.1098255749        1.9189155653
 H          6.8068310865       -1.5765721387        2.3521099637
 H          4.6077245428       -2.3157648430        2.2744171708
 H          5.1307989953       -2.7411283244        0.6366391972
 O          3.2124232474       -0.4279523672        1.8469709198
 C          2.2038461968        0.4958811181        1.6431242579
 O          1.7098016407        0.9621781927        2.6906122238
 O          2.0900504917        0.3802103268       -1.9695685854
 C          0.7362204248        1.8202065478        0.1211285301
 C         -0.4381333152        1.1803067285       -0.5797874029
 C         -1.0921745930        1.7558122771       -1.6606593584
 C         -2.1646572220        1.1123569314       -2.2552287106
 C         -2.6143836988       -0.1056996115       -1.7816243504
 C         -1.9805839970       -0.6795378121       -0.6859633765
 C         -0.9079768435       -0.0333316171       -0.0918037758
 H         -0.4136852135       -0.4842495075        0.7604536163
 N         -2.4421544182       -1.9064832028       -0.1812744812
 S         -4.0936923202       -2.1237492710       -0.0270212105
 O         -4.2509993251       -3.0731629510        1.0526793996
 O         -4.6518351658       -2.5196735022       -1.2960668525
 C         -4.7403168531       -0.5275980394        0.4410927226
 C         -4.2550609557        0.0614579926        1.5919452059
 C         -4.7254942921        1.3131911426        1.9536280235
 C         -5.6693751842        1.9511084329        1.1630416256
 C         -6.1514057372        1.3437787705        0.0142072861
 C         -5.6823298908        0.0928505532       -0.3538607081
 H         -6.0260988103       -0.4140675392       -1.2407394536
 H         -6.8866404091        1.8412433191       -0.5973569963
 H         -6.0302878514        2.9271742202        1.4463155237
 H         -4.3503920643        1.7861810672        2.8471180421
 H         -3.5236359946       -0.4600553599        2.1888675700
 H         -1.9482614089       -2.2281492210        0.6375533701
 H         -3.4352138083       -0.6274270079       -2.2462431708
 H         -2.6551519920        1.5649683661       -3.1032101343
 H         -0.7562901482        2.7039490926       -2.0462187351
 H          0.4062483952        2.1197177078        1.1268382003
 C          1.2812486610        3.0381625430       -0.5950639028
 C          0.6701357843        4.3864268912       -0.3635243722
 C          2.0227115908        4.0702578225        0.1984889588
 H          2.8901365578        4.5364565068       -0.2442414040
 H          2.1117588357        3.9075409696        1.2631130963
 H          0.6105291130        5.0752497099       -1.1925589246
 H         -0.1604049085        4.4477934972        0.3231165714
 H          1.6552768379        2.8055194507       -1.5852920063
