  62
        -98.94351981
 C         -1.8024395155       -1.3617396195        0.2991117753
 C         -1.9092195261       -0.1631659701        1.0536896874
 C         -3.1771290612        0.5656836967        0.9476067845
 C         -4.1552868059        0.0838803302        0.1595101685
 C         -5.5264544893        0.6772524002       -0.0193732705
 C         -5.5928106800        1.8027642596       -1.0604420074
 C         -4.9589741437        3.1248050102       -0.6268671413
 H         -5.2634163102        3.8799511575       -1.3542404775
 H         -5.3666571864        3.4214330906        0.3401166992
 C         -3.4260515284        3.0970404843       -0.5555040413
 H         -3.0504599481        2.2360153226       -1.1132044607
 H         -3.0236310828        3.9908567585       -1.0372676172
 C         -2.8582299454        3.0529155360        0.8627093465
 H         -3.1211116621        3.9707864910        1.3932098236
 H         -1.7693725784        3.0052476626        0.7902760031
 C         -3.3244364904        1.8545472481        1.6992067261
 H         -4.3594441318        1.9942245294        2.0114699484
 H         -2.6959052163        1.7926312842        2.5912594292
 H         -6.6480828375        1.9836161125       -1.2775722307
 H         -5.1189726135        1.4551638943       -1.9812929183
 H         -6.1748476633       -0.1367944061       -0.3506646212
 H         -5.8935676499        1.0448072996        0.9394314101
 O         -4.0055250147       -1.0488033755       -0.5724638803
 C         -2.8298939398       -1.7878760571       -0.5438260026
 O         -2.8518522692       -2.7727639236       -1.3077067737
 O         -0.9863228503        0.2674833244        1.7964129102
 C         -0.5144223926       -2.1477858157        0.4643417601
 C          0.5119814788       -1.8084886994       -0.5901118736
 C          0.2140720289       -1.8700078387       -1.9470527878
 C          1.1842324185       -1.5745048113       -2.8871949418
 C          2.4606049972       -1.2088647317       -2.4959591305
 C          2.7709861566       -1.1524216450       -1.1421249017
 C          1.7957734027       -1.4557718816       -0.2015717567
 H          2.0511374508       -1.4134583253        0.8458807526
 N          4.0676921573       -0.8226848275       -0.7209583436
 S          4.3464190338        0.1729161811        0.5928608621
 O          5.7642978934        0.4497672087        0.5309470414
 O          3.8731164312       -0.4544116294        1.7994923435
 C          3.4347598584        1.6650680926        0.2444757357
 C          4.0723000825        2.6489987176       -0.4880631636
 C          3.3804708305        3.8033856648       -0.8137165412
 C          2.0623244934        3.9528873044       -0.4087976487
 C          1.4383327977        2.9558805882        0.3233526544
 C          2.1239183458        1.7977515296        0.6553360400
 H          1.6444093937        1.0184900533        1.2260050945
 H          0.4143769614        3.0620914926        0.6454245243
 H          1.5190794162        4.8500935631       -0.6605166937
 H          3.8676807095        4.5810488635       -1.3795479895
 H          5.1015012668        2.4970743466       -0.7705472143
 H          4.7096814255       -0.6119181472       -1.4711527891
 H          3.2147784242       -0.9786509937       -3.2329671642
 H          0.9429655259       -1.6263506774       -3.9382009889
 H         -0.7797432208       -2.1577255941       -2.2547157117
 H         -0.1039930272       -1.8268925836        1.4324996366
 C         -0.7171836435       -3.6504874526        0.5129992568
 C          0.3226061948       -4.5015968228        1.1750200351
 C         -1.0153582225       -4.3112889630        1.8234954022
 H         -1.7079789372       -5.1393185260        1.8363582938
 H         -1.0712579013       -3.6823501504        2.7003671073
 H          0.5519385746       -5.4630398611        0.7418692188
 H          1.1750289517       -4.0036336437        1.6130832939
 H         -1.2068213194       -4.0459867867       -0.3671888900
