  62
        -98.93923443
 C         -2.3695315110       -1.2326785204        0.0117484509
 C         -3.2156910911       -0.5950414404        0.9465631708
 C         -4.0003211714        0.5510472993        0.4551433006
 C         -3.8616665516        0.9451320791       -0.8247534995
 C         -4.5451049719        2.0486620488       -1.6055125297
 C         -5.3258356821        3.1471096587       -0.8879379098
 C         -4.4740174823        4.0899508491       -0.0386010200
 H         -3.8539438625        4.6947752891       -0.7053385402
 H         -5.1440265225        4.7660517390        0.4968504799
 C         -3.5443030321        3.4147322595        0.9667023201
 H         -2.8011685720        2.8172002296        0.4334372301
 H         -3.0007695423        4.2003076097        1.4990434099
 C         -4.2352958319        2.5376199695        2.0092371002
 H         -3.4838996518        2.2545684398        2.7514648903
 H         -5.0080763520        3.1149637594        2.5200357202
 C         -4.8648348416        1.2408446393        1.4710952305
 H         -4.9680987814        0.5443034494        2.3082062006
 H         -5.8593883316        1.4197922390        1.0701346005
 H         -6.1237997520        2.7143838787       -0.2918778097
 H         -5.8027987423        3.7475541685       -1.6673083499
 H         -3.7612914020        2.5073992589       -2.2171355498
 H         -5.2219139618        1.5430218285       -2.3031548096
 O         -3.0258818414        0.2987675392       -1.6913998394
 C         -2.2637358011       -0.7933136606       -1.3064791092
 O         -1.5492645311       -1.2658949005       -2.2105653292
 H         -0.2388727013       -0.0997371097        0.7716642506
 C          0.4382036489       -0.8886892896        0.4662127307
 C         -0.0644795308       -2.1643517997        0.2460293110
 C          0.8209772595       -3.1617019796       -0.1439981689
 C          2.1649393794       -2.8798810693       -0.3167889890
 C          2.6574715091       -1.6052864391       -0.1059357892
 C          1.7815948688       -0.5995350393        0.2801839606
 N          2.2653528185        0.7002249209        0.5043371004
 S          3.3028427883        1.3914804909       -0.6211979098
 O          3.0869304080        2.8174106509       -0.5013710300
 O          3.1296391284        0.8204422407       -1.9358669597
 C          4.9187774084        0.9972237015        0.0154913503
 C          5.8085493986        0.2684860615       -0.7486960996
 C          7.0575735287       -0.0261302380       -0.2237495396
 C          7.3931666286        0.4123117523        1.0479213903
 C          6.4896756385        1.1475292422        1.8009307602
 C          5.2399757884        1.4449416318        1.2820800502
 H          4.5107007282        2.0175039817        1.8304825701
 H          6.7543200784        1.4889763524        2.7886844101
 H          8.3650013187        0.1807294626        1.4543580903
 H          7.7618980588       -0.5960495480       -0.8081382095
 H          5.5043670887       -0.0523066987       -1.7326155896
 H          1.5486374684        1.3572152108        0.7760790203
 H          3.7009358290       -1.3786102789       -0.2499385393
 H          2.8391095296       -3.6651571792       -0.6228653089
 H          0.4564041097       -4.1604308697       -0.3198004287
 C         -1.5374575307       -2.4186344501        0.4588847810
 H         -1.7151340806       -2.5083696699        1.5416331711
 C         -2.0278838704       -3.6826052603       -0.2185516887
 C         -1.9818669000       -4.9987163302        0.4970787215
 C         -3.2955376302       -4.3152272505        0.2700597514
 H         -3.9784354901       -4.7299308108       -0.4561156085
 H         -3.7851815803       -3.8509900105        1.1137697914
 H         -1.7643549598       -5.8884723602       -0.0744220783
 H         -1.5857857300       -5.0090407399        1.5012173615
 H         -1.8540154304       -3.6714658005       -1.2890157687
 O         -3.3145700610       -0.9665293302        2.1475512708
