  62
        -98.93800426
 C         -2.4264426274       -0.4109848933        0.4714890537
 C         -3.2233305595       -0.3663470017       -0.6996835009
 C         -4.3106121348        0.6248157460       -0.6891452705
 C         -4.4659590318        1.4486479256        0.3616395645
 C         -5.5053383322        2.5279276090        0.4985511181
 C         -6.8636803832        2.0255394635        1.0066756950
 C         -7.6762648680        1.2135368403       -0.0027566477
 H         -7.7562747806        1.7716883171       -0.9360827602
 H         -8.6844256177        1.1133947772        0.4043343601
 C         -7.1171167464       -0.1879512682       -0.2851017153
 H         -7.9307224937       -0.9164969501       -0.2596504078
 H         -6.4149582479       -0.4655944288        0.5045694719
 C         -6.4217520125       -0.3322248855       -1.6389230719
 H         -7.1484240944       -0.1855940952       -2.4410629080
 H         -6.0340700260       -1.3510932325       -1.7183024198
 C         -5.2528711528        0.6377591164       -1.8551247236
 H         -5.6280395535        1.6455956461       -2.0308660582
 H         -4.6952697554        0.3115802337       -2.7363809771
 H         -7.4497875915        2.9025904753        1.2907632754
 H         -6.7007431863        1.4292526626        1.9075254938
 H         -5.6377547147        3.0332413825       -0.4585079451
 H         -5.1122774821        3.2470788775        1.2204039326
 O         -3.6514770168        1.4032596860        1.4501383853
 C         -2.6371340056        0.4665205810        1.5387086578
 O         -1.9947155435        0.5099232272        2.6083254301
 O         -3.0545031141       -1.0974464943       -1.7075792418
 C         -1.2836528301       -1.3949044793        0.6630465232
 C          0.0005811579       -0.8296694384        0.1133996780
 C          0.0895566081       -0.3814532126       -1.2010236114
 C          1.2795174796        0.1286184420       -1.6867683219
 C          2.3985883615        0.2097210088       -0.8760204476
 C          2.3193181867       -0.2292174707        0.4383229558
 C          1.1244979871       -0.7479122123        0.9218087465
 H          1.0635736486       -1.0789676791        1.9502224586
 N          3.4462537196       -0.1310038941        1.2708842960
 S          4.9097037639       -0.7337709717        0.7110859171
 O          4.7079275847       -1.8165919101       -0.2232902605
 O          5.6690671320       -1.0442885639        1.9023015822
 C          5.6625295968        0.6542319026       -0.1106513545
 C          6.0797471046        0.5342874325       -1.4217171982
 C          6.6768361279        1.6236084179       -2.0370874850
 C          6.8459421932        2.8063706991       -1.3337990257
 C          6.4232827893        2.9096884597       -0.0167189735
 C          5.8267351400        1.8242935214        0.6046163894
 H          5.4881723253        1.8629890574        1.6265969288
 H          6.5564113078        3.8312896043        0.5266976456
 H          7.3102180789        3.6528530149       -1.8147262617
 H          7.0064861821        1.5453187550       -3.0606490729
 H          5.9229984871       -0.4034171271       -1.9308335861
 H          3.2776117652       -0.4185341091        2.2239924601
 H          3.3266757441        0.6089554034       -1.2512857790
 H          1.3366088990        0.4700873216       -2.7092365581
 H         -0.7821911267       -0.4430420286       -1.8346294122
 H         -1.1636110820       -1.4822719804        1.7548574053
 C         -1.6004236503       -2.7884722465        0.1365453046
 C         -0.9212189668       -3.4156142774       -1.0396915984
 C         -0.6172413384       -3.9031916771        0.3429096238
 H         -0.9846263332       -4.8710657193        0.6488984415
 H          0.3459188349       -3.6452445534        0.7591177658
 H         -1.5219324548       -4.0325873554       -1.6902751565
 H         -0.1607568169       -2.8522328437       -1.5566011344
 H         -2.6478372932       -3.0393782561        0.2702348819
