  62
        -98.93899412
 C         -2.4055950796       -1.1650675406       -0.0643674896
 C         -2.9849293400       -0.2375216403        0.8310018798
 C         -3.4493211101        1.0386340294        0.2591944791
 C         -3.2810724298        1.2535391288       -1.0589165010
 C         -3.6112325498        2.5107332584       -1.8135028617
 C         -2.5319700001        3.5982146087       -1.6277689719
 C         -1.8686477505        3.6326265694       -0.2503848717
 H         -1.4904403203        2.6356458896       -0.0104346611
 H         -0.9929023206        4.2848365096       -0.3158785717
 C         -2.7481980409        4.1458205698        0.8896829578
 H         -2.9139640811        5.2166899297        0.7470728373
 H         -2.1905266711        4.0179112404        1.8212582480
 C         -4.1149167508        3.4795811096        1.0363834677
 H         -4.5933944412        3.9104024699        1.9210530674
 H         -4.7426424606        3.7352651191        0.1869963574
 C         -4.0942328406        1.9676458097        1.2580608485
 H         -3.5933793008        1.7563854203        2.2093167987
 H         -5.1294906205        1.6270841696        1.3843700183
 H         -1.7407263298        3.4110225885       -2.3572470515
 H         -2.9714184402        4.5724679685       -1.8461382324
 H         -4.5919614300        2.8675030483       -1.5110917821
 H         -3.6609696594        2.2471946179       -2.8717111216
 O         -2.7029707894        0.3401380085       -1.8847494104
 C         -2.2300762593       -0.8732105612       -1.4172060297
 O         -1.6976845089       -1.5866090415       -2.2875084992
 O         -3.0917751703       -0.4571687397        2.0702523999
 C         -1.8417886295       -2.4628575702        0.4924155012
 C         -0.3378879695       -2.3745335699        0.4035675816
 C          0.4564798409       -3.2445593901       -0.3295280878
 C          1.8226892709       -3.0348486899       -0.4211587475
 C          2.4224409705       -1.9600146495        0.2096294122
 C          1.6362030201       -1.0902575293        0.9542689115
 C          0.2740279701       -1.3086083995        1.0538378512
 H         -0.3373653202       -0.6225015794        1.6281648008
 N          2.2373836197        0.0310110411        1.5779098112
 S          2.6548235598        1.2522353007        0.4895346907
 O          2.7314311093        2.4630463111        1.2787391302
 O          1.7549483401        1.2793550800       -0.6420363295
 C          4.2896504000        0.7830384508       -0.0314518786
 C          5.3044411198        0.8137474814        0.9053479217
 C          6.5799817999        0.4322092915        0.5215307022
 C          6.8169573404        0.0302252409       -0.7848377775
 C          5.7876078807        0.0081776603       -1.7136940378
 C          4.5085875005        0.3872095602       -1.3359439683
 H          3.6746777307        0.3795654797       -2.0198803086
 H          5.9734180010       -0.3045177802       -2.7286475976
 H          7.8101497205       -0.2677130990       -1.0816422171
 H          7.3832566697        0.4483484020        1.2403232225
 H          5.0746693194        1.1385632318        1.9063298915
 H          1.6442297594        0.4347399213        2.2911000808
 H          3.4838320105       -1.7887108193        0.1322636024
 H          2.4273756912       -3.7150758201       -1.0011659670
 H          0.0037983312       -4.0758144105       -0.8442675575
 H         -2.1219068898       -2.4701202398        1.5558666811
 C         -2.4363162591       -3.6791510306       -0.1802034084
 C         -2.3945516190       -5.0056183903        0.5165095822
 C         -3.6945857391       -4.2745914506        0.3741657115
 H         -4.4305000688       -4.6567735011       -0.3170632585
 H         -4.1206552494       -3.8105889303        1.2518139412
 H         -2.2391838286       -5.8943575405       -0.0757336073
 H         -1.9374960093       -5.0408212397        1.4938073424
 H         -2.3256949687       -3.6608132011       -1.2577866884
