  62
        -98.92769844
 C         -2.3684690868       -0.9410918070        0.6076951078
 C         -1.9085216524       -0.2213752218       -0.5203025941
 C         -2.0501537132        1.2493715355       -0.4676783797
 C         -2.6534715108        1.8162915414        0.5918710335
 C         -2.9252689318        3.2742148546        0.8667287174
 C         -3.4106642473        4.1279820469       -0.3144935891
 C         -2.3622689197        5.1195037101       -0.8230167444
 H         -2.8755055910        5.9450010184       -1.3209265211
 H         -1.8336121101        5.5365044046        0.0365805157
 C         -1.3479188101        4.5446299728       -1.8104175155
 H         -0.5813927326        5.3046112203       -1.9786932744
 H         -1.8383742221        4.3622699865       -2.7689628927
 C         -0.6669416606        3.2495669850       -1.3633269360
 H         -0.4264944924        3.2941592200       -0.3014753963
 H          0.2764019382        3.1607954221       -1.9070806962
 C         -1.4936756492        1.9878866664       -1.6545102379
 H         -2.3102171901        2.2243417443       -2.3427221551
 H         -0.8713491826        1.2510381075       -2.1736260009
 H         -4.2756549837        4.7002494028        0.0246741307
 H         -3.7492439906        3.4838465899       -1.1243813236
 H         -2.0251698156        3.7181322102        1.2998417511
 H         -3.6795030365        3.2736410546        1.6571386384
 O         -3.1059548281        1.0779638653        1.6466440475
 C         -2.9411664153       -0.2935748626        1.7038305998
 O         -3.3353193143       -0.8143357030        2.7659251932
 O         -1.3864220135       -0.7623460417       -1.5296625815
 C         -2.1848104772       -2.4445666191        0.7260203063
 C         -0.7974635360       -2.8268859946        0.2644902131
 C         -0.5354878494       -3.8499187345       -0.6364992761
 C          0.7640687890       -4.1282779141       -1.0269849183
 C          1.8255830506       -3.3924511533       -0.5368765201
 C          1.5732774009       -2.3616914136        0.3592045356
 C          0.2759154009       -2.1015218968        0.7683319492
 H          0.0848980749       -1.2974955098        1.4698242243
 N          2.6508674680       -1.5981327732        0.8414347984
 S          3.6897131059       -0.9250492060       -0.3129852196
 O          3.0791032719       -0.9699486158       -1.6185546954
 O          4.9683313723       -1.5862042117       -0.1962388057
 C          3.8363345930        0.7647554838        0.2371930248
 C          2.7828920558        1.6225581464       -0.0195871782
 C          2.8751653314        2.9389854528        0.4031180140
 C          4.0094923896        3.3710166269        1.0749820938
 C          5.0555258631        2.4969250161        1.3283822992
 C          4.9714621261        1.1791555689        0.9063573830
 H          5.7606308210        0.4643912074        1.0724867251
 H          5.9353409099        2.8373425056        1.8500071077
 H          4.0768174128        4.3970666435        1.4003144740
 H          2.0642286698        3.6211970446        0.2040359277
 H          1.9199331222        1.2481341691       -0.5499307953
 H          2.3648882458       -0.9052502174        1.5188667538
 H          2.8418210152       -3.5777312086       -0.8492465563
 H          0.9497338247       -4.9236339452       -1.7332215372
 H         -1.3488863519       -4.4170120507       -1.0581954978
 H         -2.2455248871       -2.6517442918        1.8079591511
 C         -3.2867027078       -3.2629162327        0.0684612811
 C         -4.6408156887       -2.6758369984       -0.1935827938
 C         -3.7323006927       -3.0033843515       -1.3382526277
 H         -3.9806049867       -3.8487332639       -1.9633179153
 H         -3.2540513668       -2.1942219701       -1.8670557161
 H         -5.5072988748       -3.2982655995       -0.0271178559
 H         -4.7966459999       -1.6366920990        0.0578321110
 H         -3.2731170888       -4.2986463318        0.3934113820
