  62
        -98.94468752
 C         -2.5775684891       -0.8630370486        0.2775131968
 C         -2.5022184283        0.0157056260       -0.8306325155
 C         -2.8142959381        1.4262521054       -0.5573345256
 C         -3.1770557984        1.8012853959        0.6815661029
 C         -3.4668550476        3.2105109112        1.1069618824
 C         -2.2084624343        3.8991010162        1.6525641154
 C         -0.9816193564        3.7682707732        0.7488812957
 H         -0.1748869377        4.3406553961        1.2127145308
 H         -0.6510501954        2.7266679453        0.7202968978
 C         -1.1914487141        4.2631061553       -0.6887181368
 H         -2.0600977069        4.9218937188       -0.7347987524
 H         -0.3191713394        4.8497710073       -0.9848163249
 C         -1.3414625030        3.1454070995       -1.7228083031
 H         -0.5292520589        2.4239195780       -1.5905749810
 H         -1.2289763651        3.5841510212       -2.7185685619
 C         -2.6790865522        2.3930658781       -1.6993757543
 H         -3.5039147488        3.1088358006       -1.7026695361
 H         -2.7407569834        1.7933120641       -2.6122546181
 H         -2.4350434772        4.9560786483        1.8053521866
 H         -1.9653704845        3.4588936061        2.6222502103
 H         -3.8591588457        3.7671286223        0.2582398843
 H         -4.2231135875        3.1821960523        1.8934449604
 O         -3.2861120689        0.9243683109        1.7111072872
 C         -2.9572274268       -0.4082620614        1.5450666539
 O         -3.0562006386       -1.0900048068        2.5848901677
 H         -0.3658820042       -1.4342948236       -1.5796703007
 C          0.1115496313       -1.8467429916       -0.7032879184
 C         -0.6668021539       -2.3924153633        0.3077264812
 C         -0.0283174682       -2.8930650870        1.4364646048
 C          1.3498799627       -2.8334465221        1.5531343689
 C          2.1167962186       -2.2472287478        0.5607716724
 C          1.4851331435       -1.7458595185       -0.5684094523
 N          2.2492316494       -1.0481488139       -1.5423024285
 S          2.5091650053        0.5494206798       -1.0523456208
 O          1.4010758491        1.0520144243       -0.2715294951
 O          2.8374711747        1.2861504883       -2.2536097197
 C          3.9583349824        0.3997254856       -0.0312546995
 C          3.8653803732        0.6090753888        1.3300393850
 C          5.0022030949        0.4582834656        2.1092222843
 C          6.2033751614        0.1013256755        1.5157364412
 C          6.2797733054       -0.1050462433        0.1460319026
 C          5.1473651689        0.0443972818       -0.6381709351
 H          5.1589472931       -0.1016612494       -1.7053648723
 H          7.2158272088       -0.3827445531       -0.3109804173
 H          7.0853178118       -0.0171512499        2.1251938322
 H          4.9442152081        0.6170772259        3.1740955591
 H          2.9080837097        0.8794269720        1.7468698560
 H          1.7795784738       -1.0208879219       -2.4386986540
 H          3.1876891318       -2.1684223542        0.6562253004
 H          1.8299639972       -3.2275655886        2.4357281277
 H         -0.6250625637       -3.3041268962        2.2379157565
 C         -2.1726253623       -2.3312900051        0.2165923161
 H         -2.5869418288       -2.7948777612        1.1215755867
 C         -2.7089621400       -3.0712733628       -0.9911033107
 C         -2.7758013011       -4.5675494127       -0.9496685005
 C         -4.0363202282       -3.7588660613       -0.8966726593
 H         -4.6828647066       -3.7486143438       -1.7612024752
 H         -4.5646468450       -3.6974846631        0.0437315624
 H         -2.4507179284       -5.0573578160       -0.0442989202
 H         -2.5550276722       -5.1172213275       -1.8516749601
 H         -2.4615687273       -2.6024392180       -1.9339265365
 O         -2.1945059922       -0.3327913241       -2.0038721083
