  62
        -98.93890030
 C          2.5780363676        1.1815979691        0.3116669469
 C          2.5954817902        0.4325789214       -0.8878495491
 C          3.3175831472       -0.8529587643       -0.8445105301
 C          3.8957747177       -1.2409004270        0.3053253270
 C          4.6175361087       -2.5314402372        0.5791384929
 C          3.6557806227       -3.5741617374        1.1740265115
 C          2.8912413052       -4.4085682557        0.1467273999
 H          3.5815182962       -5.1037338739       -0.3356858271
 H          2.1549535260       -5.0030313884        0.6928928184
 C          2.1656181772       -3.6108379353       -0.9403992225
 H          1.6572540828       -2.7520568274       -0.4959787428
 H          1.3882417877       -4.2506303923       -1.3635738260
 C          3.0969771671       -3.1442462089       -2.0694093004
 H          4.0491043487       -3.6677601058       -1.9837340154
 H          2.6686002850       -3.4334919719       -3.0311934357
 C          3.3422790421       -1.6295566792       -2.1324490313
 H          4.2972162229       -1.4433961651       -2.6351569061
 H          2.5669530973       -1.1631606238       -2.7488287092
 H          2.9473334088       -3.0476928175        1.8192899113
 H          4.2263087665       -4.2576723401        1.8060371897
 H          5.0952921614       -2.9052836255       -0.3212721172
 H          5.3872382057       -2.3065864214        1.3203538870
 O          3.8426482046       -0.4928807981        1.4426817355
 C          3.1782319885        0.7193122736        1.4812688425
 O          3.1855134750        1.2775858954        2.5979361680
 H          0.2748889544        0.6807190683        1.4851025591
 C         -0.2774080883        1.2531273943        0.7483193443
 C          0.3748255254        2.2683867592        0.0586800310
 C         -0.3436054106        2.9963714162       -0.8795027841
 C         -1.6723947682        2.6969715088       -1.1289868347
 C         -2.3132906395        1.6785543206       -0.4481957735
 C         -1.6061535251        0.9498941966        0.4997157926
 N         -2.2516179532       -0.0807105315        1.2096371080
 S         -2.9994130709       -1.2878702356        0.3079590659
 O         -3.0168263132       -2.4472818104        1.1740689583
 O         -2.3710256454       -1.4570094236       -0.9814251233
 C         -4.6642054942       -0.6902144025        0.1072104705
 C         -5.1959939280       -0.5447985633       -1.1589415410
 C         -6.4966486762       -0.0829882143       -1.2898938331
 C         -7.2375975082        0.2229937025       -0.1586674275
 C         -6.6891951175        0.0690494976        1.1060955349
 C         -5.3903743858       -0.3935791100        1.2440639587
 H         -4.9277245181       -0.5314716088        2.2070117936
 H         -7.2685357387        0.3080834476        1.9832971256
 H         -8.2487301707        0.5833727888       -0.2633664436
 H         -6.9246594698        0.0366204504       -2.2721857745
 H         -4.5790753183       -0.7895739403       -2.0089778916
 H         -1.6700809131       -0.4966242152        1.9234428275
 H         -3.3453328588        1.4386322932       -0.6455766986
 H         -2.2164529878        3.2652413639       -1.8678579127
 H          0.1395252394        3.7893547361       -1.4259039206
 C          1.8336783750        2.5042778517        0.3697920302
 H          1.9081557864        2.8483193595        1.4119198928
 C          2.4939134345        3.5266691796       -0.5301475110
 C          2.3767213169        4.9879291709       -0.2202404425
 C          3.6819449580        4.2808902830       -0.0161162912
 H          4.4948136425        4.4873241157       -0.6959390743
 H          4.0016244549        4.0727911958        0.9948886235
 H          1.8114930769        5.2691974371        0.6553412296
 H          2.2963862548        5.6844681244       -1.0409793178
 H          2.5076167620        3.2195748710       -1.5693342324
 O          2.0304063985        0.8120821739       -1.9465609163
