  62
        -98.93753656
 C         -1.9418315761       -0.8605928272        0.7612098302
 C         -2.3834333107       -0.3781651355       -0.4962366829
 C         -2.9250070125        0.9914996924       -0.5033838348
 C         -2.9239708878        1.7120633220        0.6318875881
 C         -3.4001091114        3.1305532532        0.7509885476
 C         -2.2597798792        4.1277541221        0.5034407689
 C         -1.4586900320        3.8458016349       -0.7675380220
 H         -0.7061666204        4.6323934921       -0.8575441353
 H         -0.9322343701        2.8955115288       -0.6509914647
 C         -2.2959309054        3.7971342902       -2.0529466418
 H         -1.7805256295        4.3662627709       -2.8293178424
 H         -3.2610810734        4.2768375068       -1.8865515607
 C         -2.5187639936        2.3886265040       -2.6060728157
 H         -2.9278722819        2.4799323376       -3.6157238992
 H         -1.5609474861        1.8685533186       -2.6880932264
 C         -3.4800214713        1.5032872714       -1.8034989376
 H         -4.4177421736        2.0372811973       -1.6351276927
 H         -3.6930171959        0.6160755414       -2.4071298722
 H         -2.6854346404        5.1315135253        0.4529823987
 H         -1.5772099220        4.0900779138        1.3557482342
 H         -3.7873085958        3.2782627091        1.7605641921
 H         -4.2040939474        3.2975324368        0.0365279935
 O         -2.4378628964        1.2356473969        1.8074215582
 C         -1.9402686943       -0.0538466774        1.9021686675
 O         -1.5264936095       -0.3573446518        3.0394476206
 O         -2.3442252165       -1.0426205333       -1.5627078840
 C         -1.3827590177       -2.2636866534        0.9284220432
 C         -0.3831308783       -2.5556970895       -0.1634258193
 C         -0.5786683454       -3.5140230403       -1.1477298193
 C          0.3834371909       -3.7169152597       -2.1211937357
 C          1.5564541652       -2.9864040071       -2.1206080854
 C          1.7639315736       -2.0221145403       -1.1385109509
 C          0.7909859192       -1.8105604862       -0.1753203987
 H          0.9491627909       -1.0749841821        0.6009617405
 N          2.9416519574       -1.2564567167       -1.1480261445
 S          3.7926098882       -0.8091936356        0.2201671774
 O          5.1781802611       -1.1365117782       -0.0462110564
 O          3.2208176910       -1.3887506804        1.4112705379
 C          3.6394601724        0.9668708127        0.2734531173
 C          2.4244412799        1.5653651568        0.0065293223
 C          2.3281279749        2.9463833749        0.0795038054
 C          3.4394202210        3.7034476736        0.4168998881
 C          4.6535818479        3.0889154281        0.6798670344
 C          4.7557573779        1.7088210039        0.6084020242
 H          5.6810016427        1.1891332528        0.7969560293
 H          5.5182520974        3.6779953476        0.9397049275
 H          3.3558359488        4.7772323609        0.4726912639
 H          1.3840288661        3.4245245104       -0.1269502110
 H          1.5737121876        0.9561751833       -0.2574483904
 H          3.5828328291       -1.4992935639       -1.8889702600
 H          2.3078036726       -3.1511186884       -2.8783283884
 H          0.2190432513       -4.4574915713       -2.8892837462
 H         -1.4940093990       -4.0820008506       -1.1675370437
 H         -0.8285323280       -2.2370091663        1.8819403840
 C         -2.4429268062       -3.3448695929        1.0772489920
 C         -3.7448615439       -3.0521230798        1.7602610004
 C         -3.7186426102       -3.3473292303        0.2921693851
 H         -4.1082668994       -4.2972397477       -0.0439412305
 H         -3.8840007912       -2.5382823841       -0.4008892902
 H         -4.1513902860       -3.7945290329        2.4305021762
 H         -3.9235317733       -2.0345495660        2.0768897125
 H         -1.9986992759       -4.3133608703        1.2877749280
