  62
        -98.93311094
 C         -2.4339577996       -1.0016639503        0.2429476597
 C         -3.0781416898       -0.0216461906        1.0349674199
 C         -3.4545913200        1.2433920095        0.3749631401
 C         -3.1291436000        1.4153482098       -0.9194811498
 C         -3.3581629001        2.6261362200       -1.7840727296
 C         -2.3634279304        3.7588938401       -1.4827443892
 C         -2.1250420705        4.0282322598        0.0008838408
 H         -1.3268917407        4.7715269699        0.0771086110
 H         -1.7570273004        3.1152249798        0.4736028307
 C         -3.3328327807        4.5553350194        0.7725670409
 H         -3.6648010408        5.4915349995        0.3185037610
 H         -2.9950131308        4.7796504293        1.7875274609
 C         -4.5324416005        3.6104209992        0.8694583606
 H         -5.0979787204        3.5989479793       -0.0582697595
 H         -5.2011706106        4.0124826789        1.6360493306
 C         -4.1910859003        2.1862437292        1.2962458303
 H         -5.1215551402        1.6705831689        1.5635093501
 H         -3.6053904303        2.2198188891        2.2219611503
 H         -2.7186556305        4.6690023301       -1.9691367591
 H         -1.4015343303        3.4896130704       -1.9272882192
 H         -4.3829005702        2.9709052598       -1.6822374296
 H         -3.2144429400        2.3048170302       -2.8180907796
 O         -2.4646082697        0.4626389301       -1.6333216000
 C         -2.0891756896       -0.7521642299       -1.0863054802
 O         -1.4746110194       -1.4942340597       -1.8754714703
 O         -3.3222228099       -0.1870268409        2.2614021598
 C         -2.0185031194       -2.2970340404        0.9189240195
 C         -0.5713136893       -2.5799059200        0.6027090595
 C         -0.1149741091       -3.7464035498        0.0051335293
 C          1.2267840210       -3.8995236395       -0.3012842106
 C          2.1391248908       -2.8990955494       -0.0219578404
 C          1.6929980205       -1.7319678796        0.5817683299
 C          0.3541288005       -1.5865241799        0.9001607298
 H          0.0097324003       -0.6658929001        1.3586217900
 N          2.6198391203       -0.6911040995        0.8483487402
 S          3.0624054502        0.2170479009       -0.5112751796
 O          2.1627083400        1.3451398207       -0.6514600994
 O          3.1896244405       -0.6610222088       -1.6447166098
 C          4.6740981301        0.7938764111       -0.0132783994
 C          5.7216799503       -0.1061661787       -0.0409712995
 C          6.9759224201        0.3115736214        0.3730872507
 C          7.1603995999        1.6159161914        0.8077304210
 C          6.0992975297        2.5077281012        0.8300543211
 C          4.8415712198        2.0948284410        0.4179158909
 H          3.9893053797        2.7551793809        0.4126389710
 H          6.2453604895        3.5214842411        1.1667468413
 H          8.1375634898        1.9397016015        1.1296153011
 H          7.8036107403       -0.3789292084        0.3557895906
 H          5.5320917505       -1.1061644487       -0.3939893197
 H          2.2468440401       -0.0360726197        1.5244841903
 H          3.1793156708       -2.9971186891       -0.2846693303
 H          1.5632052412       -4.8083183493       -0.7769085108
 H         -0.8143612689       -4.5251055299       -0.2514354009
 H         -2.0935898895       -2.0752118206        1.9972832195
 C         -2.9444550192       -3.4741941305        0.6565055992
 C         -4.3854606992       -3.2581694707        0.3055296991
 C         -3.4414378890       -3.8153990703       -0.7151537409
 H         -3.5340554288       -4.8583949802       -0.9807727812
 H         -3.1283138991       -3.1832065500       -1.5309794908
 H         -5.1235825091       -3.9153832809        0.7399831989
 H         -4.7233573094       -2.2389400907        0.1853492593
 H         -2.7335884291       -4.3087000106        1.3181645190
