  62
        -98.93914252
 C         -2.3410630425       -0.8139144678        0.6078450908
 C         -3.4330984103       -0.9823204434       -0.2790893695
 C         -4.6390637270       -0.2036890766        0.0355774230
 C         -4.6655375854        0.5959190548        1.1159177091
 C         -5.8264391535        1.4376213413        1.5715692216
 C         -5.9268844579        2.7967210175        0.8653340816
 C         -6.3917386287        2.7412510138       -0.5904991199
 H         -7.3138721755        2.1628117015       -0.6542021182
 H         -6.6273932410        3.7643978165       -0.8899860525
 C         -5.3537266314        2.1686206730       -1.5658264380
 H         -4.3664638359        2.1823558808       -1.0978344073
 H         -5.2959114781        2.8057144657       -2.4512299262
 C         -5.6524286198        0.7490417029       -2.0478842342
 H         -6.5731934299        0.7474454728       -2.6353618215
 H         -4.8354091220        0.4300537675       -2.6997547732
 C         -5.7902526548       -0.2835756411       -0.9217421570
 H         -6.7331806802       -0.1425086993       -0.3943592165
 H         -5.7828578039       -1.2808254276       -1.3680116956
 H         -4.9536091887        3.2902135718        0.9189398994
 H         -6.6388461049        3.4041050216        1.4289747244
 H         -6.7562718488        0.8848836066        1.4345037168
 H         -5.6806028343        1.6143194595        2.6394088477
 O         -3.6035316759        0.7170124538        1.9567778729
 C         -2.4242797426        0.0347417313        1.7168193381
 O         -1.5317674331        0.2553510323        2.5617991994
 H          1.3832692490       -0.3307228768        0.8278824710
 C          1.0800388201       -0.2993594135       -0.2089151446
 C         -0.1372954662       -0.8417482769       -0.5936219489
 C         -0.5114605282       -0.7675852689       -1.9315648132
 C          0.3221705605       -0.1680494802       -2.8574389588
 C          1.5482844599        0.3472978085       -2.4755492226
 C          1.9275714805        0.2847349092       -1.1399175969
 N          3.1563443283        0.8158817566       -0.7161455720
 S          3.9802403265        0.0242978813        0.5273670749
 O          3.9068289826       -1.4066898170        0.3362545143
 O          3.5070895988        0.5249938670        1.7936612275
 C          5.6418272839        0.6016222768        0.2344407828
 C          6.5153618221       -0.1891659017       -0.4880259323
 C          7.7955226956        0.2806014309       -0.7365248519
 C          8.1770775240        1.5273096456       -0.2639965001
 C          7.2893302494        2.3093068768        0.4602576412
 C          6.0083125532        1.8452511346        0.7135349704
 H          5.2874890889        2.4121003362        1.2796638037
 H          7.5904611536        3.2766275964        0.8288184488
 H          9.1737498467        1.8907187406       -0.4583406746
 H          8.4889930705       -0.3264310080       -1.2958434174
 H          6.1769417140       -1.1548334447       -0.8277270004
 H          3.7696659687        1.0514316283       -1.4844600776
 H          2.2043103830        0.8008228464       -3.2031304616
 H          0.0200989636       -0.1143659133       -3.8925637789
 H         -1.4616721378       -1.1798296698       -2.2336245092
 C         -1.0072013955       -1.5225988544        0.4366894395
 H         -0.4966070442       -1.4304963230        1.4057130871
 C         -1.1435813250       -2.9984457994        0.1099971406
 C          0.0491185143       -3.8853862433        0.2974327867
 C         -1.1257761681       -4.0019203094        1.2209794566
 H         -1.7610707125       -4.8711962226        1.1402829373
 H         -1.0200177134       -3.6297769103        2.2301141425
 H          0.9554551598       -3.4326387462        0.6742414803
 H          0.2203977530       -4.6754442881       -0.4176273298
 H         -1.7929736106       -3.1952696391       -0.7324910020
 O         -3.4314986491       -1.7379393173       -1.2864195872
