  62
        -98.93865972
 C         -1.3191721394       -1.2037621071       -0.5175025905
 C         -2.6648225522       -1.5181020303       -0.2177434261
 C         -3.6463344124       -0.4280378532       -0.3591547537
 C         -3.2244911282        0.7946575498       -0.7329305326
 C         -3.9862072401        2.0791792966       -0.9865697344
 C         -5.4394015296        2.2276821572       -0.5440699368
 C         -5.6441276673        2.2676176842        0.9701702336
 H         -6.7177511404        2.2651030357        1.1706724266
 H         -5.2373972850        3.2080637732        1.3502957806
 C         -4.9891581920        1.1332231677        1.7542645482
 H         -5.2008082975        1.2943453069        2.8148294617
 H         -3.9051467929        1.1795987625        1.6319322456
 C         -5.4684840086       -0.2715169908        1.3946230226
 H         -6.5555547357       -0.3235605643        1.4820082790
 H         -5.0412870455       -0.9629942436        2.1259897342
 C         -5.0647058603       -0.7705530013       -0.0033446413
 H         -5.7506599326       -0.4090955097       -0.7656822153
 H         -5.1245005642       -1.8628862743       -0.0008740139
 H         -6.0514209838        1.4506028878       -0.9923361091
 H         -5.7925864822        3.1799786333       -0.9490279970
 H         -3.9354805178        2.2433087416       -2.0685300567
 H         -3.3901321087        2.8735821591       -0.5268920134
 O         -1.9114160132        1.0512227115       -1.0052220861
 C         -0.9304201696        0.0772461608       -0.9058750023
 O          0.2134209563        0.4762414128       -1.1867748579
 O         -3.0371511368       -2.6655774346        0.1481251768
 C         -0.2630046250       -2.2858453441       -0.3700226693
 C          0.6639405719       -1.8849308755        0.7496337362
 C          0.2092231511       -1.9909851399        2.0624169571
 C          1.0026267464       -1.5908720534        3.1196717795
 C          2.2606278819       -1.0614886300        2.8885127533
 C          2.7206691187       -0.9462190027        1.5820052464
 C          1.9283336291       -1.3652347299        0.5214127668
 H          2.3109647147       -1.2649448938       -0.4795244812
 N          3.9949909799       -0.4208782035        1.3247168192
 S          4.3199275476        0.4855745704       -0.0355343024
 O          4.3697953882       -0.3596973550       -1.2023634246
 O          5.5621244710        1.1589646921        0.2913732042
 C          3.0379257476        1.7151185892       -0.2026040916
 C          2.7388100758        2.1676473422       -1.4699711464
 C          1.8011096466        3.1747162484       -1.6218375320
 C          1.1770825026        3.7084652191       -0.5068541327
 C          1.4877199185        3.2433257622        0.7603541070
 C          2.4314065799        2.2418220288        0.9187252291
 H          2.6807818767        1.8666241398        1.8981766078
 H          0.9932003346        3.6532194921        1.6270797034
 H          0.4376685824        4.4849670036       -0.6272227415
 H          1.5509711776        3.5291729516       -2.6091619418
 H          3.2317979830        1.7114595020       -2.3135635145
 H          4.4892124492       -0.0690994541        2.1313747526
 H          2.8830921032       -0.7437228022        3.7112754870
 H          0.6393111391       -1.6848347533        4.1318164188
 H         -0.7805684668       -2.3888921157        2.2389850403
 H         -0.8088163294       -3.1880041982       -0.0604785553
 C          0.4419671710       -2.5681114039       -1.6788614493
 C          1.2156537227       -3.8416075259       -1.8375839166
 C         -0.0760592350       -3.6522009397       -2.5734591658
 H         -0.0443268364       -3.4973909777       -3.6415912390
 H         -0.9411221082       -4.2055686188       -2.2381428071
 H          2.1391728335       -3.8157955964       -2.3959619284
 H          1.2275172339       -4.5241466262       -1.0011240203
 H          0.8328927635       -1.6772723614       -2.1565336488
