  62
        -98.93819723
 C          0.8634143027        1.1141547883        0.2943480741
 C          1.5226801769        0.2475752392        1.2011857007
 C          2.5059554216       -0.6747378497        0.6206259941
 C          2.6854816610       -0.6853698879       -0.7127553462
 C          3.7056864969       -1.5175476345       -1.4334626133
 C          5.0319106381       -0.7580169629       -1.5828072597
 C          5.5360617422       -0.1275513560       -0.2846390606
 H          6.4902858250        0.3550551040       -0.5069186990
 H          4.8430595656        0.6586027580        0.0236850102
 C          5.7232074455       -1.1183890740        0.8728184470
 H          6.6800618360       -0.9143157331        1.3579711541
 H          5.7679168778       -2.1370008022        0.4857788319
 C          4.6479128086       -1.0359705346        1.9580508659
 H          4.9875538049       -1.6173864166        2.8195340235
 H          4.5373322283        0.0003235873        2.2874602611
 C          3.2637093011       -1.5664170247        1.5635854837
 H          3.3650252223       -2.5727140311        1.1513960235
 H          2.6580372992       -1.6262343538        2.4728805785
 H          4.8930364452        0.0388957699       -2.3167872766
 H          5.7838588279       -1.4485984649       -1.9688782596
 H          3.8673989314       -2.4450811021       -0.8878839316
 H          3.3226168139       -1.7498410311       -2.4279000803
 O          1.9835316878        0.1074652316       -1.5568693142
 C          1.0743532154        1.0459029720       -1.0834663982
 O          0.5441845177        1.7241152817       -1.9790756903
 H         -1.9343417534        0.3489695617        1.3445830373
 C         -2.2499633658        1.0113155195        0.5508694047
 C         -1.4234503670        2.0647268415        0.1677591648
 C         -1.8641881029        2.8947848654       -0.8562327838
 C         -3.0936593060        2.6825462596       -1.4559387632
 C         -3.9035273213        1.6293781886       -1.0758465077
 C         -3.4683565109        0.7796384991       -0.0661194620
 N         -4.2464588553       -0.3159724141        0.3383003069
 S         -3.4984782865       -1.7156936537        0.8449940515
 O         -4.4781334357       -2.7538189516        0.6000437270
 O         -3.0663024466       -1.5843930289        2.2137473555
 C         -2.0906484947       -1.9742904900       -0.2231072737
 C         -2.2208197226       -1.7747789539       -1.5830906426
 C         -1.1422022524       -2.0498195810       -2.4074230926
 C          0.0355016003       -2.5385784214       -1.8650527937
 C          0.1493285435       -2.7395702334       -0.4989664037
 C         -0.9193188096       -2.4462010294        0.3321908855
 H         -0.8613227929       -2.5692756204        1.4022792862
 H          1.0647121679       -3.1193061432       -0.0751937176
 H          0.8698387822       -2.7636251638       -2.5100850347
 H         -1.2233085649       -1.8847083248       -3.4696645518
 H         -3.1505761738       -1.4092920966       -1.9874092131
 H         -5.0613160527       -0.5004363597       -0.2279700763
 H         -4.8561055641        1.4613682534       -1.5542888171
 H         -3.4168629626        3.3426792325       -2.2464344441
 H         -1.2465150738        3.6940318831       -1.2218174890
 C         -0.0994524753        2.1390184778        0.8827711914
 H         -0.2832510563        1.7712397672        1.9055798263
 C          0.6148885419        3.4722211325        1.0658830241
 C          1.0011480626        4.4067590993       -0.0391373919
 C         -0.0370879512        4.8170985961        0.9632258576
 H          0.2342606388        5.5647695764        1.6939764979
 H         -1.0696418410        4.8616406519        0.6573634412
 H          1.9752358298        4.8720858288        0.0182091310
 H          0.7120389737        4.1530658227       -1.0459452444
 H          1.3557927466        3.3678913088        1.8557004987
 O          1.3078144984        0.2554297158        2.4443241679
