  62
        -98.94159105
 C          2.7977178299        0.6966751679       -0.2437165497
 C          2.2314863889       -0.2456129817       -1.1369130294
 C          2.5732373679       -1.6544615220       -0.8892619194
 C          3.4119172779       -1.9705221726        0.1128145604
 C          3.8058062569       -3.3653512529        0.5010591603
 C          2.8692940968       -3.9291868221        1.5784233106
 C          1.3831652768       -3.7644494409        1.2579990210
 H          0.8215622766       -4.2346163404        2.0685734012
 H          1.1225200276       -2.7027238207        1.2698429410
 C          0.9488426259       -4.3724548506       -0.0826520088
 H          0.0138972356       -4.9155192899        0.0698148915
 H          1.6941662453       -5.0931324613       -0.4225360690
 C          0.6895346765       -3.3466439505       -1.1878455888
 H          0.0200785472       -2.5683698899       -0.8090106687
 H          0.1710343358       -3.8547833201       -2.0058349586
 C          1.9385726668       -2.6822481115       -1.7829060892
 H          2.6629186061       -3.4491343621       -2.0653692893
 H          1.6333823070       -2.1473606314       -2.6868913091
 H          3.0970964260       -4.9881831022        1.7133062706
 H          3.0737273574       -3.4143040422        2.5200324105
 H          3.7861951062       -4.0016193629       -0.3814683796
 H          4.8227534170       -3.3368466237        0.8961347501
 O          3.9725879189       -1.0374496530        0.9235580201
 C          3.6563162599        0.3019034473        0.7878199901
 O          4.2084064307        1.0423598969        1.6265141399
 H          0.0475298402        1.3754126700       -1.1418982089
 C         -0.0150608191        1.9066904401       -0.2036698690
 C          1.1416003015        2.4159199792        0.3696409007
 C          1.0410796123        3.0710247894        1.5913625307
 C         -0.1836710274        3.2031827404        2.2233478410
 C         -1.3304535280        2.6737273013        1.6581453114
 C         -1.2368521588        2.0148965711        0.4403953314
 N         -2.3971629195        1.4214038720       -0.1236901083
 S         -2.8244488004       -0.0249780576        0.6492223519
 O         -2.9405967898        0.2337204526        2.0621731720
 O         -1.9188325413       -1.0875397283        0.2664406518
 C         -4.4398769608       -0.3071467164       -0.0484101776
 C         -5.4777682101        0.5019302945        0.3724348726
 C         -6.7342229103        0.3222561655       -0.1826234670
 C         -6.9301468014       -0.6575950644       -1.1448923069
 C         -5.8784167821       -1.4614124053       -1.5569966771
 C         -4.6180315319       -1.2852170663       -1.0066679375
 H         -3.7716756324       -1.8885239170       -1.2944300077
 H         -6.0335706030       -2.2229022752       -2.3043290170
 H         -7.9091066216       -0.7962983237       -1.5758369666
 H         -7.5548578898        0.9450085161        0.1350981832
 H         -5.2788713493        1.2450541644        1.1264687825
 H         -2.2332063699        1.1895892418       -1.0967855883
 H         -2.2832446678        2.7384285921        2.1568293716
 H         -0.2433244967        3.7129604205        3.1731248210
 H          1.9373049528        3.4549121987        2.0575049604
 C          2.4824012511        2.1864785081       -0.2865461297
 H          3.2481775917        2.6708923276        0.3336265101
 C          2.5446339712        2.7829361280       -1.6781851597
 C          2.7137222423        4.2645247478       -1.8221199399
 C          3.8415096315        3.3431795169       -2.1757081301
 H          4.0940233211        3.2085323467       -3.2166699402
 H          4.6923527017        3.2986250263       -1.5112794003
 H          2.8009407330        4.8474748378       -0.9176867899
 H          2.1901690425        4.7667675782       -2.6209127998
 H          1.9176405906        2.2734053684       -2.3971769495
 O          1.4767124589        0.0467057088       -2.1039151692
