  62
        -98.93421380
 C         -1.8741596527       -1.3965519531        0.6977289439
 C         -1.7265620948       -0.0697845404        1.1757850709
 C         -2.8159012807        0.8716881239        0.8724269948
 C         -3.8785006788        0.4317736657        0.1769076349
 C         -5.0685100736        1.2339821711       -0.2717325301
 C         -4.8682278266        1.7448151108       -1.7083139910
 C         -4.1179203248        3.0715968231       -1.8193130148
 H         -4.7637689153        3.8792104829       -1.4682949509
 H         -3.9233227377        3.2466919699       -2.8800516231
 C         -2.7908334815        3.1388111770       -1.0578040624
 H         -2.1915005533        3.9336843176       -1.5070963176
 H         -2.2467745487        2.2016204433       -1.1925525715
 C         -2.9664589813        3.4358457645        0.4394231054
 H         -3.9884182141        3.7728089873        0.6131361117
 H         -2.3163619340        4.2672240619        0.7191492829
 C         -2.6412431658        2.2723059454        1.3908122763
 H         -3.2339264068        2.3840559687        2.3046036602
 H         -1.5899081021        2.3215097583        1.6894451176
 H         -5.8466781959        1.8688551327       -2.1768976014
 H         -4.3348483730        0.9713509534       -2.2670933811
 H         -5.9253625176        0.5570556747       -0.2599217398
 H         -5.2596788852        2.0543637741        0.4139267480
 O         -3.9789484942       -0.8474080272       -0.2718827131
 C         -2.9784173601       -1.7878482207       -0.0587111792
 O         -3.2122202091       -2.8917442611       -0.5824028313
 H          1.8474229650       -1.6325001905        1.4824829807
 C          1.6422462774       -1.6974456236        0.4227868172
 C          0.3764138254       -2.0668247957       -0.0044133993
 C          0.1186349286       -2.1142530876       -1.3711543089
 C          1.1125209674       -1.8094501109       -2.2831685506
 C          2.3760304612       -1.4403125578       -1.8531671716
 C          2.6379068499       -1.3758030959       -0.4912597720
 N          3.9170500163       -0.9820732949       -0.0470916463
 S          4.4328622531        0.5616502216       -0.4472198359
 O          4.5176811035        0.6685043433       -1.8811140797
 O          5.6636271082        0.7526676172        0.2849232492
 C          3.1743304781        1.6579656540        0.1804131664
 C          3.3585055739        2.2411731690        1.4179683943
 C          2.3651219371        3.0613015062        1.9268251570
 C          1.2065497006        3.2740360519        1.1967924456
 C          1.0324451181        2.6738046126       -0.0399088213
 C          2.0240129741        1.8562314386       -0.5567192328
 H          1.9232082665        1.3767593234       -1.5171691086
 H          0.1245427385        2.8337276375       -0.5987557050
 H          0.4322100993        3.9107857023        1.5951650869
 H          2.4937688593        3.5271800072        2.8907076207
 H          4.2772868086        2.0519989949        1.9499007152
 H          4.0520357742       -1.1229801480        0.9446921759
 H          3.1532967438       -1.1769026419       -2.5519054977
 H          0.9015483116       -1.8542842710       -3.3412191482
 H         -0.8723265966       -2.3851590732       -1.7065793116
 C         -0.7174862322       -2.3342831792        0.9971195889
 H         -0.3418774793       -2.0156747902        1.9827934975
 C         -1.1010512524       -3.7998997469        1.1135133480
 C         -0.6871873121       -4.8469429395        0.1278258099
 C         -0.0551687793       -4.8098207199        1.4848724895
 H         -0.3064564091       -5.5801032605        2.1980293358
 H          0.9665330835       -4.4653071503        1.5470653730
 H         -0.0889146837       -4.5493546642       -0.7188572392
 H         -1.3976930386       -5.6277286268       -0.0964017219
 H         -2.0803067199       -3.9288238411        1.5613641770
 O         -0.7190916091        0.3075706841        1.8317844727
