  62
        -98.93963600
 C          2.2452616483        0.7588378864        0.1626756972
 C          2.4332876138       -0.4654175107        0.8484455907
 C          3.2258208981       -1.4793782417        0.1451699027
 C          3.6686754642       -1.2318979965       -1.1010921949
 C          4.4725627277       -2.1722516802       -1.9574878067
 C          5.9810862209       -2.1331257549       -1.6762451992
 C          6.4150361391       -2.7821269509       -0.3612558449
 H          6.0014583040       -3.7892764810       -0.3007617036
 H          7.5020780595       -2.8780683398       -0.3952814537
 C          6.0296259200       -1.9884578759        0.8949810383
 H          5.7818397677       -0.9617182357        0.6158272603
 H          6.8863672265       -1.9377605036        1.5707122440
 C          4.8635542560       -2.5807202431        1.6864928836
 H          4.6542420931       -1.9208701294        2.5323330315
 H          5.1487183476       -3.5572940774        2.0839248951
 C          3.5689401210       -2.7409444293        0.8786286521
 H          3.6607245284       -3.5739025668        0.1820837774
 H          2.7540135500       -2.9535259132        1.5748540194
 H          6.4787772009       -2.6560853941       -2.4961436189
 H          6.3129957487       -1.0924867847       -1.6963953824
 H          4.1039605770       -3.1906356420       -1.8318736934
 H          4.3071245413       -1.8671878991       -2.9929845223
 O          3.4098275753       -0.0672177696       -1.7521139490
 C          2.7114537122        0.9626047713       -1.1366093910
 O          2.5764450014        1.9786133879       -1.8431119752
 O          1.9573527569       -0.7006369015        1.9923805984
 C          1.4707268870        1.8670984365        0.8553930356
 C          0.1639776237        2.0848590955        0.1326135077
 C         -0.1681587489        3.2611068364       -0.5242573359
 C         -1.3788222541        3.3718485677       -1.1873594272
 C         -2.2795399908        2.3236907733       -1.2053963501
 C         -1.9627521051        1.1456516269       -0.5395685725
 C         -0.7505375290        1.0374249063        0.1249676814
 H         -0.4976726902        0.1206237299        0.6432063050
 N         -2.8672321466        0.0666681431       -0.5578090560
 S         -4.5008264963        0.4336062802       -0.3250221768
 O         -5.0536594746        0.8659860730       -1.5842341687
 O         -4.6501349603        1.3555418648        0.7787276952
 C         -5.1626638442       -1.1635873047        0.1047852668
 C         -5.4628864456       -2.0542972705       -0.9083836268
 C         -5.9629427691       -3.3029340410       -0.5749827590
 C         -6.1536139351       -3.6379902318        0.7574678649
 C         -5.8484577084       -2.7330020002        1.7629697797
 C         -5.3462877929       -1.4829963952        1.4367006561
 H         -5.1041831408       -0.7447788749        2.1845170434
 H         -6.0003327820       -2.9951304013        2.7976876693
 H         -6.5454412056       -4.6095471437        1.0141137119
 H         -6.2038456648       -4.0086177738       -1.3535703343
 H         -5.3086929578       -1.7465159656       -1.9294116226
 H         -2.5725450045       -0.6828833171        0.0534190162
 H         -3.2254628368        2.4030820123       -1.7165253430
 H         -1.6242468993        4.2898636963       -1.7001528598
 H          0.5221374185        4.0881000434       -0.5273990270
 H          1.2391734594        1.4749406211        1.8564434176
 C          2.3118078196        3.1156100063        1.0065900269
 C          1.9595375047        4.1247423285        2.0569085434
 C          3.1765785961        3.2660972941        2.2208788768
 H          4.1490781686        3.7211186841        2.1072902846
 H          3.1491645953        2.4732141384        2.9541438413
 H          2.0963061663        5.1718046810        1.8335888452
 H          1.1029791564        3.9162756713        2.6800824080
 H          2.7105314015        3.4739699284        0.0649428782
