  62
        -98.94424617
 C         -1.3211130696       -1.4376617199        0.6371421914
 C         -2.1306972414       -1.0259579969       -0.4513535091
 C         -3.1143993903        0.0236607672       -0.1547152384
 C         -3.1862270349        0.5525845168        1.0789729812
 C         -4.1242417996        1.6402842153        1.5252961503
 C         -3.6188772379        3.0533263582        1.2022721427
 C         -3.6967484685        3.4524746838       -0.2720382692
 H         -4.7004237518        3.2544500713       -0.6507156578
 H         -3.5366991867        4.5316325033       -0.3180687889
 C         -2.6591632617        2.7667813628       -1.1726230899
 H         -2.2113560910        3.5086553273       -1.8389198382
 H         -1.8425541818        2.3718751378       -0.5618888750
 C         -3.2210118865        1.6508741661       -2.0546961376
 H         -3.9133468100        2.0776640817       -2.7845627790
 H         -2.3891456711        1.1989245943       -2.6013055403
 C         -3.9468224573        0.5363514188       -1.2904693029
 H         -4.9099438869        0.8940431892       -0.9270468771
 H         -4.1170411476       -0.2936967740       -1.9808448351
 H         -2.5841093815        3.1422231233        1.5433029634
 H         -4.2228704551        3.7570360312        1.7802530806
 H         -5.1062803898        1.4902758139        1.0759488817
 H         -4.2182192159        1.5472648509        2.6094957192
 O         -2.3853601199        0.1392737750        2.0963996909
 C         -1.4069503012       -0.8194261186        1.8863749404
 O         -0.6814137594       -1.0321127523        2.8801864186
 H          0.5672442977        0.0525021675       -0.0599343631
 C          0.9728829040       -0.6203783149       -0.7989061438
 C          0.6630823063       -1.9718983623       -0.7272500466
 C          1.1600371299       -2.8153292157       -1.7112475269
 C          1.9354301294       -2.3035382878       -2.7387571813
 C          2.2431971376       -0.9565657908       -2.8025640212
 C          1.7472501340       -0.1040214912       -1.8220513494
 N          2.0094329472        1.2730779654       -1.8429893894
 S          2.1027252233        2.1321495319       -0.4148277868
 O          0.7941166341        2.3148950919        0.1616100456
 O          2.8041632100        3.3450495116       -0.7790217433
 C          3.1379705634        1.1400849583        0.6476731086
 C          2.6225089798        0.5226674201        1.7684546769
 C          3.4559008515       -0.2759472974        2.5366557363
 C          4.7833409342       -0.4413269433        2.1749926535
 C          5.2900635786        0.1937795581        1.0508651665
 C          4.4612050167        0.9894977406        0.2782173760
 H          4.8205065699        1.5081105588       -0.5956591129
 H          6.3244227334        0.0682070855        0.7745745727
 H          5.4253039399       -1.0667314501        2.7749548036
 H          3.0525651115       -0.7668625176        3.4082503949
 H          1.5844752793        0.6609586518        2.0304055782
 H          2.6816466835        1.5814932583       -2.5285792411
 H          2.8442723656       -0.5637564285       -3.6080043390
 H          2.3079838169       -2.9672272099       -3.5042089868
 H          0.9245449242       -3.8666151941       -1.6893429492
 C         -0.1759384221       -2.4185163938        0.4472801631
 H          0.4453912596       -2.2948823239        1.3509480539
 C         -0.5734490922       -3.8861352317        0.4004249115
 C         -1.8965583677       -4.3501774750        0.9308469242
 C         -1.6164641122       -4.4090420192       -0.5392880366
 H         -1.4585432581       -5.3779531669       -0.9904208755
 H         -2.1031762166       -3.6955628227       -1.1843913047
 H         -1.9298278325       -5.2732406844        1.4903652408
 H         -2.5835595462       -3.5965991016        1.2890134497
 H          0.2710816234       -4.5393775701        0.5974325498
 O         -2.0429870050       -1.4934228331       -1.6154231923
