  62
        -98.93829475
 C         -2.1799195328       -0.8825396386       -0.0673497376
 C         -2.9172103932       -0.2099108848        0.9324460626
 C         -3.7540300725        0.9192653049        0.4899488327
 C         -3.7648875784        1.2616193243       -0.8122353345
 C         -4.4812819295        2.3792762173       -1.5414606191
 C         -5.6300511464        3.1356265086       -0.8790148248
 C         -6.8874839327        2.3028819208       -0.6322430261
 H         -7.5989955429        2.9167562914       -0.0756433515
 H         -7.3397688184        2.0617254960       -1.5974491672
 C         -6.6727717452        0.9897711171        0.1163333965
 H         -6.0473380367        0.3238367904       -0.4817312033
 H         -7.6463369125        0.5042622566        0.2254504717
 C         -6.0628626455        1.1236870053        1.5103825404
 H         -6.6561935076        1.8193624422        2.1068712904
 H         -6.1175929495        0.1421262628        1.9889538176
 C         -4.5920741026        1.5746589139        1.5497011456
 H         -4.5077249057        2.6574548208        1.4918629833
 H         -4.1693296046        1.2647936129        2.5101804707
 H         -5.9008028983        3.9467156751       -1.5605032715
 H         -5.2942200119        3.6000365172        0.0435638239
 H         -3.7041320811        3.1015452747       -1.8152757660
 H         -4.8363426531        1.9402903018       -2.4791566634
 O         -3.0072739943        0.6012487186       -1.7368535335
 C         -2.2087226291       -0.4800992596       -1.4013027944
 O         -1.5893248567       -0.9784838362       -2.3587756913
 H          0.0439565182        0.1909020750        0.7068357535
 C          0.6754041985       -0.5693804569        0.2618584897
 C          0.1308743013       -1.8149830177       -0.0266986995
 C          0.9587002629       -2.7833410808       -0.5794585189
 C          2.2861858327       -2.5001240846       -0.8515578701
 C          2.8172688329       -1.2533915556       -0.5791452530
 C          2.0020910896       -0.2803076276       -0.0155963699
 N          2.5341441724        0.9943529843        0.2591804213
 S          3.8847126923        1.0636222298        1.2592378065
 O          3.9105367335       -0.0450278622        2.1855793224
 O          3.8574610364        2.3875592904        1.8421953783
 C          5.2614836519        0.9517759599        0.1364149984
 C          5.3788106713        1.9118377813       -0.8495741857
 C          6.4496859818        1.8423313967       -1.7263491519
 C          7.3809221260        0.8219668744       -1.6010495866
 C          7.2508890549       -0.1319668274       -0.6032279742
 C          6.1813684856       -0.0689541634        0.2764960064
 H          6.0357597317       -0.7903633625        1.0645957054
 H          7.9762238316       -0.9238351458       -0.5071042016
 H          8.2133125474        0.7706050479       -2.2850454009
 H          6.5543045390        2.5824732804       -2.5033263090
 H          4.6360822165        2.6899337275       -0.9094911820
 H          1.8402064359        1.6580317232        0.5726062709
 H          3.8475623759       -1.0260858194       -0.7987409414
 H          2.9151418179       -3.2615808487       -1.2866558149
 H          0.5635334346       -3.7610849669       -0.8007211542
 C         -1.3163729407       -2.0675283385        0.3196169974
 H         -1.3921252004       -2.1393149079        1.4157146631
 C         -1.8708798003       -3.3389808300       -0.2894378134
 C         -1.7119042946       -4.6516082376        0.4161915623
 C         -3.0551672491       -3.9905644567        0.3573286656
 H         -3.8175345182       -4.4202089192       -0.2749802533
 H         -3.4415355409       -3.5328383860        1.2565500563
 H         -1.5541988073       -5.5399210149       -0.1767139153
 H         -1.1892610144       -4.6518441612        1.3609020853
 H         -1.8347050776       -3.3288568718       -1.3730723260
 O         -2.8714264137       -0.5303078263        2.1521768510
