  62
        -98.94295753
 C         -2.4970499256       -0.8595188594        0.4816935613
 C         -2.5610148243        0.3382999159       -0.2700569843
 C         -3.7220142949        1.1954732580        0.0011781022
 C         -4.6212498242        0.8309635807        0.9332366579
 C         -5.8438507392        1.6098621966        1.3367071943
 C         -7.0585316108        1.3794817319        0.4271547177
 C         -6.9672360613        2.0248853698       -0.9561731500
 H         -7.9630817536        1.9714201529       -1.4006399172
 H         -6.7157624763        3.0803267240       -0.8474456299
 C         -5.9667107177        1.3502968150       -1.9050932885
 H         -5.7207419480        0.3549611400       -1.5278005685
 H         -6.4292247996        1.2150771888       -2.8854566719
 C         -4.6704505991        2.1318140582       -2.1197230467
 H         -4.8912398385        3.0774475873       -2.6197828802
 H         -4.0223290530        1.5465521339       -2.7769795755
 C         -3.8924093884        2.4301853479       -0.8313849639
 H         -2.8956586951        2.7840081520       -1.1059927243
 H         -4.3958101159        3.2094734857       -0.2597274596
 H         -7.2141156428        0.3036485466        0.3180254862
 H         -7.9314197775        1.7908110257        0.9393145709
 H         -6.1023832434        1.2814410749        2.3456939508
 H         -5.6072651938        2.6737366746        1.3674584414
 O         -4.5070116662       -0.3171885651        1.6535805293
 C         -3.4573461941       -1.1946488491        1.4356852398
 O         -3.4847277087       -2.2181452076        2.1496292395
 H          0.9171900868       -1.6881177447       -1.3132456764
 C          1.0215731989       -1.1686696035       -0.3734241012
 C         -0.0335473925       -1.1409729651        0.5235827276
 C          0.1407671984       -0.4711888248        1.7322325641
 C          1.3304103809        0.1676495199        2.0216506473
 C          2.3754218499        0.1541470618        1.1136430773
 C          2.2183739454       -0.5213508272       -0.0876136688
 N          3.2692171518       -0.5345928663       -1.0174060804
 S          4.8279217787       -0.8589136377       -0.4945674815
 O          5.5153817098       -1.3706370453       -1.6601284565
 O          4.8287517424       -1.7071302114        0.6745662660
 C          5.4926995199        0.7425764934       -0.0898078037
 C          5.4528959289        1.7285593973       -1.0561005136
 C          5.9810417819        2.9752826343       -0.7618956634
 C          6.5401001773        3.2130373034        0.4850366105
 C          6.5751452520        2.2118757615        1.4433525193
 C          6.0472912803        0.9627101130        1.1556255065
 H          6.0488168290        0.1560040048        1.8714617043
 H          7.0103273515        2.3984604754        2.4120476122
 H          6.9510140998        4.1844104875        0.7108372271
 H          5.9549766844        3.7567345475       -1.5042324641
 H          5.0132184395        1.5038542723       -2.0135547894
 H          3.0574350526       -1.0230729265       -1.8749385021
 H          3.3044116493        0.6552175198        1.3311051573
 H          1.4465302558        0.6853633396        2.9618622237
 H         -0.6761043929       -0.4577404473        2.4415591386
 C         -1.3508023230       -1.8297332453        0.2602839238
 H         -1.4730359571       -2.6229072872        1.0124903338
 C         -1.4563968174       -2.4473271494       -1.1186390689
 C         -0.8853429218       -3.8072592490       -1.3834556697
 C         -2.3704870429       -3.6170382855       -1.3184428513
 H         -2.9395233576       -3.6772552310       -2.2340712193
 H         -2.8983922275       -3.9871050712       -0.4514329198
 H         -0.4373171882       -4.0023861950       -2.3465112557
 H         -0.4023879136       -4.3157966931       -0.5624737512
 H         -1.4117941639       -1.7083520444       -1.9107273205
 O         -1.6980254109        0.6760151018       -1.1210222959
