  62
        -98.93942663
 C         -2.2471775538       -0.8368422017       -0.0591415934
 C         -3.2532989185       -0.6899450858        0.9268066521
 C         -4.1514213797        0.4695735429        0.7954894028
 C         -3.9693384289        1.3314411337       -0.2223038823
 C         -4.6895121914        2.6140386719       -0.5828992202
 C         -6.0350321119        2.9594167403        0.0501939707
 C         -7.1869275878        2.0394979859       -0.3527775873
 H         -7.4149587752        2.2101944963       -1.4079395329
 H         -8.0678024234        2.3221596492        0.2276932352
 C         -6.9314686868        0.5452277770       -0.1724565809
 H         -6.1180058066        0.2302622415       -0.8292846653
 H         -7.8297292320        0.0116405654       -0.4947266952
 C         -6.6160131998        0.1035896061        1.2552841400
 H         -6.6205017537       -0.9895055798        1.2693126328
 H         -7.4018711116        0.4497719620        1.9292288697
 C         -5.2565548020        0.5669801905        1.8076123932
 H         -4.9796332445       -0.1016418859        2.6277538210
 H         -5.3159687075        1.5738282874        2.2140424455
 H         -6.2859252186        3.9689650561       -0.2866827400
 H         -5.9424824766        3.0030342479        1.1313114266
 H         -4.8005403851        2.5958768913       -1.6718329052
 H         -3.9836776199        3.4221493490       -0.3601781635
 O         -2.9681643165        1.1628636043       -1.1348545646
 C         -2.0920030719        0.0905747283       -1.0872740038
 O         -1.2523801727        0.0865731794       -2.0089788497
 O         -3.3954432310       -1.4956637599        1.8846158590
 C         -1.3027385060       -2.0224223380        0.0562056677
 C          0.0588083393       -1.5058387121        0.4497956703
 C          0.3371530650       -1.2695194176        1.7932677655
 C          1.5528538616       -0.7367465468        2.1783483530
 C          2.5130371721       -0.4190468721        1.2329914903
 C          2.2365924498       -0.6314408182       -0.1103536368
 C          1.0235073638       -1.1888153778       -0.4935215924
 H          0.8166716259       -1.3352654078       -1.5417546670
 N          3.1972531617       -0.3011722686       -1.0811919062
 S          3.9844734761        1.1756096587       -0.9597767834
 O          3.1751699505        2.1678632243       -0.2903042971
 O          4.4078766320        1.4913361872       -2.3068088854
 C          5.4244658389        0.7956543503        0.0191055832
 C          6.2264397798       -0.2536134853       -0.3856962921
 C          7.3543796185       -0.5599561175        0.3584431253
 C          7.6621306096        0.1856429483        1.4867724992
 C          6.8495976012        1.2386215844        1.8778281349
 C          5.7189737570        1.5495762697        1.1380958737
 H          5.0547992829        2.3554689293        1.4077975097
 H          7.0903240893        1.8177955691        2.7548036604
 H          8.5403659063       -0.0551738382        2.0646877014
 H          7.9884609771       -1.3781837336        0.0573097087
 H          5.9535886284       -0.8060580989       -1.2691579526
 H          2.8789570783       -0.4578115520       -2.0270142547
 H          3.4584629937        0.0079165187        1.5248999015
 H          1.7564095479       -0.5635865389        3.2241640757
 H         -0.4203974636       -1.4963764923        2.5303041185
 H         -1.6928234331       -2.6216301783        0.8897074231
 C         -1.2943051261       -2.8761168686       -1.1944640009
 C         -0.6898198237       -4.2463555249       -1.1385234446
 C         -2.1746106950       -4.0865672293       -1.2607227037
 H         -2.6450883347       -4.3289844634       -2.2019097388
 H         -2.7859798301       -4.3076146925       -0.3981939874
 H         -0.1384146223       -4.6026828660       -1.9950781917
 H         -0.2915327044       -4.5740850082       -0.1903318222
 H         -1.1742720657       -2.3046921481       -2.1067504544
