  62
        -98.93986923
 C         -0.4587437598       -1.5233646997        0.0982187594
 C         -1.3753756697       -0.9257494600        0.9929045297
 C         -2.4085188300       -0.0728974600        0.3881304800
 C         -2.3681048802        0.1591561103       -0.9363481299
 C         -3.3825886905        0.9521617503       -1.7114494896
 C         -4.6314457504        0.0858053602       -1.9746739596
 C         -5.8987181603        0.5708528799       -1.2692199493
 H         -6.2938782705        1.4354136499       -1.8068235690
 H         -6.6386100302       -0.2288771902       -1.3440991993
 C         -5.7395588201        0.9675938596        0.2018666608
 H         -5.3158891603        1.9707505596        0.2661187610
 H         -6.7452220901        1.0274626593        0.6232215210
 C         -4.8981108499        0.0209710695        1.0681658504
 H         -4.8841855398       -0.9813284904        0.6394996502
 H         -5.3757753997       -0.0583973008        2.0466794905
 C         -3.4520786599        0.4937532896        1.3103779003
 H         -3.4205029601        1.5848367796        1.2875326706
 H         -3.1399531397        0.1780235494        2.3099054002
 H         -4.8298440005        0.0500488304       -3.0470353096
 H         -4.4082669302       -0.9372769898       -1.6642797099
 H         -3.6508255505        1.8514494002       -1.1618801093
 H         -2.9170364206        1.2433308906       -2.6536525796
 O         -1.4301173103       -0.3844989394       -1.7579656902
 C         -0.4800080601       -1.2721998493       -1.2740582806
 O          0.2638533799       -1.7622372190       -2.1441184608
 H          1.4648305000        0.0518730505        0.4682989594
 C          2.2597032201       -0.6569430393        0.2826296091
 C          1.9829350503       -2.0174270794        0.3139869489
 C          3.0225453504       -2.9095245691        0.0775089085
 C          4.2962100103       -2.4463144289       -0.2007806916
 C          4.5592901601       -1.0901298488       -0.2581493813
 C          3.5288899800       -0.1895824091       -0.0171239210
 N          3.7540708198        1.1971725910       -0.0444243707
 S          2.6349997095        2.1777052210       -0.8131044203
 O          2.0382095994        1.5275112112       -1.9556739603
 O          3.3651407293        3.3984125412       -1.0927869001
 C          1.3980155897        2.5414237405        0.4122560700
 C          0.0913778096        2.6923350805       -0.0055480597
 C         -0.8701172503        3.0602791701        0.9210938605
 C         -0.5142599201        3.2543208898        2.2459992905
 C          0.8018403899        3.0915747699        2.6507760502
 C          1.7727802098        2.7425987503        1.7259108900
 H          2.8059249599        2.6149087604        2.0029300298
 H          1.0740364301        3.2391214697        3.6834200502
 H         -1.2674132301        3.5317865396        2.9663162507
 H         -1.8900368004        3.1962251800        0.6004005807
 H         -0.1467505406        2.5076794907       -1.0417818197
 H          4.6974463997        1.4661773112       -0.2863848808
 H          5.5492005000       -0.7279732386       -0.4908491714
 H          5.0927548704       -3.1507357887       -0.3863642819
 H          2.8330815806       -3.9700694992        0.1060536983
 C          0.5847565104       -2.4742759996        0.6496118390
 H          0.4679752006       -2.4319472299        1.7437033090
 C          0.2959985706       -3.8892875296        0.1870043587
 C          0.5818682609       -5.0591857297        1.0794718284
 C         -0.8335468692       -4.6391068299        0.8257503887
 H         -1.4567192792       -5.2628310398        0.2025043387
 H         -1.3701089692       -4.1399201101        1.6193702589
 H          0.9298751509       -5.9771336296        0.6299903581
 H          1.0005680610       -4.8557168499        2.0533977884
 H          0.4363554804       -4.0106402493       -0.8816395314
 O         -1.3377744295       -1.1056813503        2.2404564996
