  62
        -98.94423778
 C          1.8147643799        0.5931527790       -0.2456314606
 C          2.9028317400        1.3033796197        0.3158052584
 C          4.2336261300        0.9198981091       -0.1674429912
 C          4.3520937999       -0.0380183020       -1.1049914801
 C          5.6394531798       -0.5240461427       -1.7141892197
 C          6.3597201199       -1.5933916417       -0.8811906085
 C          7.0273153800       -1.0824259902        0.3962404709
 H          7.6730625801       -1.8830610597        0.7624300218
 H          7.6671399900       -0.2329685805        0.1552291898
 C          6.0460923502       -0.6911039989        1.5100208005
 H          5.0660773201       -1.1262039691        1.3003198711
 H          6.3860073503       -1.1114378777        2.4592417510
 C          5.8860826602        0.8156592614        1.7125935387
 H          5.1438112502        0.9792623723        2.4979540886
 H          6.8329922302        1.2425219518        2.0502781681
 C          5.4265718400        1.5750525199        0.4609901778
 H          5.1317513700        2.5836384902        0.7606783367
 H          6.2435408399        1.6476774890       -0.2564339923
 H          5.6444360100       -2.3800557914       -0.6298170974
 H          7.1303830099       -2.0363175825       -1.5163022180
 H          5.3798029397       -0.9588188139       -2.6818341691
 H          6.3083404998        0.3207421071       -1.8810102207
 O          3.2784266198       -0.6818534627       -1.6366960392
 C          1.9878871799       -0.3999770322       -1.2092895894
 O          1.1050076198       -1.0868789729       -1.7582088985
 O          2.7674207701        2.2101165807        1.1801979774
 C          0.4077191600        0.9245803195        0.2158583492
 C         -0.2760835599       -0.3091455599        0.7488932107
 C          0.4045394702       -1.1202000788        1.6538053316
 C         -0.1794695097       -2.2686278882        2.1504038631
 C         -1.4592679998       -2.6276869487        1.7659493536
 C         -2.1564301899       -1.8144344998        0.8801776327
 C         -1.5671216500       -0.6582721003        0.3848318013
 H         -2.1153401700       -0.0549656112       -0.3183872594
 N         -3.4706178699       -2.1301252502        0.5298655632
 S         -4.3457619801       -1.3902164117       -0.6708194775
 O         -5.5786716001       -2.1483353817       -0.7170403865
 O         -3.6237094202       -1.2966689631       -1.9178622277
 C         -4.6854036800        0.2407060291       -0.0371425895
 C         -4.8492897601        1.2747647180       -0.9373674907
 C         -5.1488397001        2.5416259286       -0.4612983222
 C         -5.2764485500        2.7529125602        0.9025227676
 C         -5.1114165698        1.7040689813        1.7938148888
 C         -4.8180433399        0.4339547107        1.3234733603
 H         -4.6829937698       -0.3988700385        1.9929672513
 H         -5.2097888697        1.8713686926        2.8543419086
 H         -5.5041506099        3.7404375507        1.2714114464
 H         -5.2782753602        3.3578220978       -1.1541569531
 H         -4.7283229202        1.0687681968       -1.9893873005
 H         -3.8141132899       -3.0375299699        0.7998318044
 H         -1.9139788497       -3.5298570582        2.1450258948
 H          0.3661563903       -2.8939985274        2.8411409638
 H          1.4068374902       -0.8432961484        1.9513031912
 H          0.5341136501        1.6352891205        1.0466445883
 C         -0.3593558601        1.6107239481       -0.8948534816
 C         -1.4301648801        2.6080313785       -0.5709719327
 C         -0.1235024002        3.0698624179       -1.1407366034
 H         -0.0984956903        3.4231184166       -2.1607014138
 H          0.5729968999        3.5737377287       -0.4866933140
 H         -2.3062423702        2.6424122777       -1.2006410626
 H         -1.6300075100        2.8071013498        0.4709038571
 H         -0.4990489602        0.9719094971       -1.7609972808
