  62
        -98.94478917
 C          1.8587709937        0.7188837012        0.4179710219
 C          2.4729701616        0.1481268672       -0.7232504526
 C          3.5418572018       -0.8217454946       -0.4500638207
 C          3.8399082167       -1.1521399378        0.8194894699
 C          4.8871664876       -2.1406062175        1.2557024558
 C          6.3038641878       -1.5550150675        1.3330551101
 C          6.9681285415       -1.2779653522       -0.0161848003
 H          8.0237179483       -1.0811130491        0.1814328521
 H          6.9148990105       -2.1732454721       -0.6364768447
 C          6.3781784850       -0.0840940904       -0.7798245616
 H          5.7946041890        0.5346282297       -0.0942666687
 H          7.1891557723        0.5397005747       -1.1623043252
 C          5.4996813673       -0.4652416577       -1.9715314742
 H          6.1052961957       -0.9713258514       -2.7265974557
 H          5.1065872727        0.4529411363       -2.4152084779
 C          4.3096220118       -1.3662976630       -1.6163958695
 H          3.6323455217       -1.3959792583       -2.4736468674
 H          4.6535034223       -2.3792833098       -1.4078362372
 H          6.2694198409       -0.6333357592        1.9185317200
 H          6.9226035783       -2.2716973037        1.8780609122
 H          4.5995227715       -2.4785439229        2.2537647243
 H          4.8832174343       -2.9997482998        0.5841416819
 O          3.1831565627       -0.6240382787        1.8872755333
 C          2.1933253892        0.3308423879        1.7145934566
 O          1.6828902926        0.7399384111        2.7783361636
 H         -0.4345639100       -0.5352476668        0.7979587841
 C         -0.9021618708       -0.0528236718       -0.0520941885
 C         -0.4027060174        1.1668359292       -0.4938039908
 C         -1.0223536105        1.7838476151       -1.5718522513
 C         -2.0894806868        1.1740502840       -2.2100825919
 C         -2.5682827582       -0.0500544855       -1.7828783003
 C         -1.9702611186       -0.6646653438       -0.6891025467
 N         -2.4629503178       -1.8976023027       -0.2305776102
 S         -4.1210240515       -2.0926731226       -0.1228981321
 O         -4.3201381119       -3.0687970228        0.9255724345
 O         -4.6529923985       -2.4444414870       -1.4160602536
 C         -4.7537341908       -0.4998752639        0.3744176425
 C         -5.6528924776        0.1669147909       -0.4325961162
 C         -6.1094837228        1.4147933683       -0.0393247927
 C         -5.6580300954        1.9728035987        1.1463842936
 C         -4.7572468003        1.2886084328        1.9485162534
 C         -4.2991443310        0.0399252764        1.5613953602
 H         -3.6011336402       -0.5175407126        2.1658279646
 H         -4.4061177512        1.7233768120        2.8706997011
 H         -6.0093241255        2.9463733525        1.4496637109
 H         -6.8113874043        1.9481586100       -0.6597744557
 H         -5.9745977030       -0.3025682825       -1.3479123797
 H         -1.9940271496       -2.2499985734        0.5902770981
 H         -3.3847733784       -0.5458362061       -2.2822178065
 H         -2.5524827182        1.6580964241       -3.0561587677
 H         -0.6633276110        2.7372852619       -1.9218082921
 C          0.7683662851        1.7621380840        0.2505672708
 H          0.4301920460        2.0121672885        1.2668754660
 C          1.3315967126        3.0097604558       -0.3967101112
 C          0.7218846321        4.3484807576       -0.1122354010
 C          2.0627446964        3.9992355840        0.4582621559
 H          2.9399729346        4.4817057682        0.0538999683
 H          2.1317514530        3.7859774644        1.5154141104
 H         -0.1208421080        4.3811517337        0.5613837744
 H          0.6801749489        5.0762148828       -0.9084700504
 H          1.7228817603        2.8229971757       -1.3899376655
 O          2.1487894591        0.4289053662       -1.9054948891
