  62
        -98.93978125
 C          2.4428054000       -0.3281150741       -0.2535428728
 C          3.6216396119       -0.2609882984       -1.0342593959
 C          4.7445073922        0.4682310499       -0.4349742532
 C          4.5947831114        1.0512191476        0.7685010708
 C          5.6370341400        1.8550084699        1.4978151134
 C          6.6278152378        1.0057842496        2.3059360452
 C          7.6490538513        0.2293438816        1.4736759077
 H          8.1447012332        0.9103803061        0.7811398158
 H          8.4085843028       -0.1424648844        2.1642771823
 C          7.0624128580       -0.9591659071        0.6992407961
 H          7.7058007127       -1.8322100736        0.8296206223
 H          6.0850698813       -1.2172614105        1.1134158767
 C          6.9155713968       -0.7258466625       -0.8044026493
 H          7.9026623352       -0.5966302379       -1.2538243892
 H          6.4582685527       -1.6149125384       -1.2460412083
 C          6.0488764738        0.4852772735       -1.1734752351
 H          5.8263917813        0.4354910394       -2.2422747506
 H          6.5889817062        1.4101118928       -0.9718604793
 H          7.1710112657        1.6827607905        2.9692828713
 H          6.0626174379        0.3106352387        2.9309694460
 H          6.1831549873        2.4773137367        0.7883000034
 H          5.0981491759        2.5067007977        2.1889360907
 O          3.4340299665        0.9900316307        1.4735586998
 C          2.3372886429        0.2885103157        0.9931922113
 O          1.3536117438        0.2921690572        1.7569765441
 O          3.7276703938       -0.7801243998       -2.1779802033
 C          1.2411028181       -1.0745802704       -0.8054015143
 C          0.0904263259       -0.1127269200       -0.9706581219
 C          0.2669849505        0.9934174482       -1.7988191184
 C         -0.7461246620        1.9155104336       -1.9728319408
 C         -1.9579117511        1.7591200168       -1.3222087722
 C         -2.1472116687        0.6579306323       -0.4997077981
 C         -1.1303742559       -0.2772134239       -0.3379515894
 H         -1.2926743297       -1.1269812476        0.3064133068
 N         -3.3651999528        0.5012672309        0.1845854393
 S         -4.7920513968        0.8390234473       -0.6513517274
 O         -4.7667086526        0.2084351271       -1.9526037929
 O         -5.0015721463        2.2652803638       -0.6494154371
 C         -5.9936488286        0.0503961817        0.4015920260
 C         -6.4368956083       -1.2211196919        0.0907623977
 C         -7.3534385802       -1.8348987427        0.9300411188
 C         -7.8056546224       -1.1717985308        2.0609329593
 C         -7.3510331795        0.1041708850        2.3597076717
 C         -6.4357781149        0.7242961357        1.5242477349
 H         -6.0616058368        1.7172709731        1.7113679654
 H         -7.7068263091        0.6170202966        3.2387070127
 H         -8.5191598324       -1.6513961748        2.7122633293
 H         -7.7109809645       -2.8254604023        0.6991482144
 H         -6.0648926066       -1.6951096883       -0.8034208407
 H         -3.4219203076       -0.3847200933        0.6676228486
 H         -2.7566909698        2.4725302191       -1.4458324792
 H         -0.5934990587        2.7677266932       -2.6184557373
 H          1.2155334315        1.1204916350       -2.3030847134
 H          1.5450179510       -1.4146178708       -1.8062607542
 C          0.9234118437       -2.2857712984        0.0448119692
 C          0.1677157740       -3.4379973727       -0.5451519969
 C          1.6284185637       -3.5765390935       -0.2407277318
 H          1.9264092670       -4.1961603086        0.5917263107
 H          2.3257519768       -3.5896469359       -1.0655724068
 H         -0.5364934878       -3.9679497923        0.0783347171
 H         -0.1301366790       -3.3610226839       -1.5799767435
 H          0.7473064814       -2.0335069482        1.0844287161
