  62
        -98.93444304
 C         -2.2395599633       -0.7212319572       -0.1966765248
 C         -3.1291063917       -0.8227947292        0.9034334290
 C         -4.1620341079        0.2187902281        1.0298653101
 C         -4.1970743291        1.2102735703        0.1234126795
 C         -5.1900054972        2.3355422528        0.0300466448
 C         -6.3440247696        1.9642666994       -0.9167676616
 C         -7.5029842461        1.2171611401       -0.2579233463
 H         -8.0514660713        1.9053251842        0.3886208075
 H         -8.1821102322        0.9045738491       -1.0545039314
 C         -7.1071660551       -0.0136339777        0.5620005086
 H         -6.3522332332       -0.5882046206        0.0221244180
 H         -7.9893325446       -0.6496177093        0.6575020353
 C         -6.5924135290        0.3360345236        1.9663020533
 H         -6.8204441178        1.3801860342        2.1794362716
 H         -7.1333287702       -0.2563390079        2.7070820359
 C         -5.0969902720        0.0756552693        2.1995996649
 H         -4.7438438303        0.7228426958        3.0092702682
 H         -4.9553519479       -0.9545387782        2.5409646542
 H         -5.9297703873        1.3605530683       -1.7285445896
 H         -6.7407142041        2.8793725758       -1.3611954190
 H         -5.5599656878        2.6060630789        1.0144911448
 H         -4.6546951603        3.1886391080       -0.3921778607
 O         -3.3130378781        1.2847029172       -0.9080119738
 C         -2.3218982710        0.3344786098       -1.1044990166
 O         -1.6072789294        0.5626168527       -2.0999104474
 H          0.2442420577        0.4146461973       -0.7782563647
 C          0.7291855616       -0.2445260923       -0.0724563083
 C          0.1143667764       -1.4390618711        0.2774372707
 C          0.7603254438       -2.2791311797        1.1765024861
 C          1.9916502732       -1.9329201131        1.7058523737
 C          2.6059560576       -0.7473841698        1.3434270667
 C          1.9666908638        0.0994803077        0.4478649871
 N          2.6070211745        1.2984958117        0.0517531159
 S          3.9136997953        1.0426455956       -0.9862911433
 O          4.1175222441        2.2971585429       -1.6765969505
 O          3.6989198403       -0.1214634416       -1.8162100138
 C          5.2743841932        0.7531199782        0.1237567227
 C          5.6796994990        1.7890450471        0.9428284938
 C          6.7336677301        1.5765953463        1.8170456675
 C          7.3609701635        0.3399123203        1.8558472768
 C          6.9435475061       -0.6886448162        1.0249193597
 C          5.8893497653       -0.4831706099        0.1484363415
 H          5.5263617704       -1.2530034421       -0.5132928705
 H          7.4327635323       -1.6488549848        1.0564134989
 H          8.1806843091        0.1769927190        2.5376417011
 H          7.0619322218        2.3740156904        2.4641035007
 H          5.1673021543        2.7342582465        0.8752134565
 H          1.9676914818        1.9389393123       -0.4005930539
 H          3.5650786671       -0.4708953025        1.7498945218
 H          2.4796139774       -2.5940193062        2.4053078136
 H          0.2855686620       -3.2055503805        1.4649440914
 C         -1.2061898994       -1.8251174579       -0.3363509717
 H         -1.6133575256       -2.6599989682        0.2557191527
 C         -1.0571553884       -2.3189602230       -1.7703948053
 C          0.1629004827       -2.1063843813       -2.6115704441
 C         -0.1477204509       -3.4714033098       -2.0791102518
 H         -0.4879677984       -4.2323794838       -2.7648617037
 H          0.4723398759       -3.8417017444       -1.2766779406
 H          0.0125685244       -1.9100457516       -3.6627474960
 H          1.0029866422       -1.5700049534       -2.1964055121
 H         -2.0042618033       -2.2956251190       -2.3010731371
 O         -3.0698848935       -1.7618855477        1.7416195217
