  62
        -98.94690633
 C         -2.0420125189       -1.0771005824       -0.5230771280
 C         -1.4859703621        0.0490760454       -1.1758841927
 C         -2.2024873916        1.3208689143       -0.9950424343
 C         -3.3075859218        1.3600403771       -0.2311277630
 C         -4.0980791264        2.5968074605        0.0813073647
 C         -3.6023133267        3.2676619665        1.3694787586
 C         -2.0880398658        3.4745286565        1.4215894056
 H         -1.8637693043        3.9976773329        2.3543144351
 H         -1.5863117843        2.5047533794        1.4760625330
 C         -1.5114648895        4.2675412466        0.2405835714
 H         -2.3068253222        4.8209380664       -0.2613549767
 H         -0.7989263262        4.9988666680        0.6281709790
 C         -0.7587531480        3.4101210093       -0.7785768005
 H         -0.1820400912        4.0761377936       -1.4266992364
 H         -0.0506622870        2.7676188714       -0.2485861588
 C         -1.6364512540        2.5325393390       -1.6807959245
 H         -1.0083127342        2.1543250771       -2.4925410846
 H         -2.4349256223        3.1360816681       -2.1180506672
 H         -4.1047000757        4.2318019806        1.4705941749
 H         -3.8904124357        2.6434423259        2.2186854738
 H         -5.1436179551        2.3114947660        0.2114468365
 H         -4.0221777970        3.2906820131       -0.7536690283
 O         -3.8163667132        0.2606910163        0.3819965981
 C         -3.1929271839       -0.9685711841        0.2637420127
 O         -3.7610506647       -1.8884004772        0.8881031423
 O         -0.4498089873        0.0218829999       -1.8914039927
 C         -1.4238051650       -2.4678654999       -0.5564520226
 C         -0.4037142567       -2.5918578907        0.5513269102
 C         -0.5407510957       -3.5606208247        1.5377689832
 C          0.3682189704       -3.6360092388        2.5781211548
 C          1.4101011487       -2.7317734477        2.6650129680
 C          1.5569140810       -1.7572890040        1.6821714749
 C          0.6700474958       -1.7141980302        0.6172272627
 H          0.7888767172       -0.9606918069       -0.1425883630
 N          2.6026891850       -0.8284668050        1.7586435538
 S          2.4111986592        0.7811823973        1.3121950352
 O          3.1855746537        1.5178142504        2.2922383638
 O          1.0201270156        1.1427089695        1.2022137786
 C          3.2668146356        0.8696319177       -0.2469595436
 C          2.5825898151        0.8920289978       -1.4440916422
 C          3.3086135564        0.9333353198       -2.6258390795
 C          4.6934808299        0.9510372103       -2.5923368815
 C          5.3663649130        0.9302709308       -1.3793790318
 C          4.6485991147        0.8891164946       -0.1964321195
 H          5.1294617719        0.8855616445        0.7676936395
 H          6.4441012280        0.9453174537       -1.3538054418
 H          5.2504125777        0.9817506245       -3.5156859161
 H          2.7792888453        0.9468875594       -3.5653121623
 H          1.5035635367        0.8661498048       -1.4550101415
 H          3.1621651939       -0.9017310264        2.5957075722
 H          2.1040191401       -2.7711173202        3.4913288981
 H          0.2525972408       -4.3924081275        3.3397248316
 H         -1.3785784582       -4.2412070513        1.4978871240
 H         -2.2445175353       -3.1626926085       -0.3296994852
 C         -0.8271741862       -2.8565923033       -1.8939223576
 C         -0.6866771628       -4.3105270732       -2.2268147748
 C         -1.7066751391       -3.4733915342       -2.9375669066
 H         -1.5368171753       -3.2140185753       -3.9715412167
 H         -2.7485127195       -3.6191752182       -2.6905272177
 H          0.1871863980       -4.6301973885       -2.7731445553
 H         -1.0383439132       -5.0277223810       -1.5005402644
 H         -0.0510788242       -2.1845471181       -2.2332429268
