  62
        -98.93258191
 C         -1.8705334712       -0.7770953198        0.4899980998
 C         -2.7855347711       -0.8418777093       -0.5877287103
 C         -3.7419722109        0.2796078609       -0.6962989500
 C         -3.6655642107        1.3010289507        0.1726127802
 C         -4.5696351204        2.4991998409        0.2608001205
 C         -5.7036697305        2.2488903709        1.2693678504
 C         -6.9400610907        1.5608727613        0.6916940301
 H         -7.6013537308        1.3246316312        1.5286760700
 H         -7.4707810105        2.2617252816        0.0438028903
 C         -6.6678988809        0.2771467614       -0.0969971102
 H         -7.5952472510       -0.2983069184       -0.1290271104
 H         -5.9299858611       -0.3298872189        0.4307586797
 C         -6.1975352108        0.5403732017       -1.5353024401
 H         -6.3734271806        1.5878327418       -1.7799496398
 H         -6.8075591009       -0.0447954980       -2.2266171103
 C         -4.7320635609        0.1810576614       -1.8249054101
 H         -4.6716103911       -0.8606246885       -2.1556957204
 H         -4.3731189607        0.7933496316       -2.6587807999
 H         -5.2974547407        1.6492926806        2.0881822802
 H         -6.0165169904        3.2064311808        1.6907263706
 H         -3.9568359103        3.3261284106        0.6254221407
 H         -4.9636224203        2.7587776712       -0.7172209395
 O         -2.7355590807        1.3472017302        1.1665671603
 C         -1.8324947510        0.3202667400        1.3538338000
 O         -1.0523423610        0.4898700696        2.3132339301
 H          1.6274138986       -1.6265973609        1.8258399897
 C          1.6321626387       -1.4938458506        0.7525351897
 C          0.4395965687       -1.5787210402        0.0503848497
 C          0.4572664288       -1.3705134598       -1.3254940903
 C          1.6483640589       -1.1103967399       -1.9783897002
 C          2.8399367789       -1.0406116804       -1.2769229001
 C          2.8284735188       -1.2227086207        0.0995772299
 N          4.0252996487       -1.1335270611        0.8252056399
 S          5.1605422490        0.0130259787        0.3930990503
 O          5.9388055890       -0.4714337312       -0.7197968698
 O          5.8996058390        0.2820066382        1.6062345304
 C          4.2391503593        1.4576091990       -0.1086715494
 C          4.5226102095        2.0536820193       -1.3209564492
 C          3.8055719798        3.1766345895       -1.7011457290
 C          2.8177053799        3.6788174995       -0.8683772289
 C          2.5450260397        3.0695308893        0.3469517109
 C          3.2632247694        1.9500923190        0.7348007207
 H          3.0665274293        1.4623929688        1.6762256906
 H          1.7716296597        3.4541895493        0.9928544410
 H          2.2550660501        4.5495901897       -1.1660249787
 H          4.0160420099        3.6534776597       -2.6448750189
 H          5.2932981095        1.6250750593       -1.9410698693
 H          3.9133777687       -1.1912393814        1.8263624599
 H          3.7762872189       -0.8532162404       -1.7768911700
 H          1.6511952889       -0.9605962597       -3.0473029701
 H         -0.4712209812       -1.4211752395       -1.8738203003
 C         -0.8462676814       -1.8612644501        0.7832758095
 H         -0.6363108214       -1.7693051704        1.8610132696
 C         -1.3739789617       -3.2703806599        0.5508804292
 C         -0.8804348419       -4.1792364897       -0.5300819010
 C         -0.5130876820       -4.4499099902        0.8959159889
 H         -0.9627606222       -5.2916655002        1.4004876487
 H          0.5057031580       -4.2493364405        1.1932492590
 H         -0.1106495218       -3.8184599497       -1.1934839109
 H         -1.6047619920       -4.8174802595       -1.0125202012
 H         -2.4272135317       -3.3521550297        0.7984832191
 O         -2.8272033313       -1.7794699691       -1.4240512205
