  62
        -98.93128057
 C          2.6165120265        0.7168816284       -0.3886165205
 C          2.0054939016        1.4354150985        0.6665645414
 C          0.9635775478        2.4138879235        0.2829522444
 C          0.7027293900        2.6203028958       -1.0183278647
 C         -0.3592933059        3.4936279279       -1.6331972225
 C         -1.7805843966        3.2080868609       -1.1181436563
 C         -2.3660154153        4.3592063772       -0.3017292839
 H         -2.1102014927        5.3008838870       -0.7920691298
 H         -3.4546538422        4.2711665134       -0.3042981727
 C         -1.9087725588        4.4029367049        1.1540896164
 H         -2.3189979319        5.3117488059        1.6013016438
 H         -2.3371976314        3.5513820330        1.6878889571
 C         -0.3932848402        4.3903502699        1.3754269992
 H         -0.1995022943        4.8748822967        2.3352725044
 H          0.1167034999        4.9785906892        0.6145336773
 C          0.2158198890        2.9858249959        1.4576493827
 H         -0.5558274618        2.2537213768        1.7264184523
 H          0.9402574354        2.9558147129        2.2791854302
 H         -1.7733338813        2.2870709947       -0.5312899197
 H         -2.4260003214        3.0318302816       -1.9804550856
 H         -0.1067769638        4.5441943264       -1.4805564760
 H         -0.3046584737        3.3018026062       -2.7066997648
 O          1.4229305699        2.0108430057       -2.0051989153
 C          2.3190056279        1.0012353553       -1.7223059387
 O          2.8098610031        0.4507086268       -2.7310498953
 O          2.2856427019        1.2758390315        1.8832450350
 C          3.4649284038       -0.5282481450       -0.1800463904
 C          2.5498354737       -1.7251191062       -0.3018933279
 C          2.9268953924       -2.8697530678       -0.9941900278
 C          2.0379179572       -3.9188664970       -1.1550344479
 C          0.7452939325       -3.8310031800       -0.6696955439
 C          0.3589062662       -2.6891008454        0.0222741432
 C          1.2717058402       -1.6689156570        0.2342079183
 H          0.9520384901       -0.7992927929        0.7884071654
 N         -0.9503592559       -2.5146309394        0.5035989430
 S         -1.6028856308       -0.9622390328        0.2829150142
 O         -1.1303567993       -0.4030050101       -0.9617620553
 O         -1.3710828468       -0.1858903551        1.4747871551
 C         -3.3410419724       -1.3485452824        0.1671398764
 C         -3.9269477581       -1.4576180554       -1.0796145345
 C         -5.2699717301       -1.7910297816       -1.1621736587
 C         -5.9986908044       -2.0120934029       -0.0031387044
 C         -5.3969295362       -1.8974916073        1.2414044297
 C         -4.0551042590       -1.5628068495        1.3311993081
 H         -3.5463511640       -1.4518962476        2.2745994600
 H         -5.9673028402       -2.0662984866        2.1404134451
 H         -7.0431728597       -2.2721827153       -0.0703206219
 H         -5.7408298200       -1.8764040919       -2.1281840014
 H         -3.3209052980       -1.2684583120       -1.9513820679
 H         -1.5866228772       -3.2308656226        0.1793482250
 H          0.0397747020       -4.6314361425       -0.8332573727
 H          2.3449650157       -4.8024491223       -1.6937068420
 H          3.9127204111       -2.9225900365       -1.4324473476
 H          4.1667063656       -0.5644345510       -1.0294396757
 C          4.2877851254       -0.5320806368        1.0974708983
 C          3.9063764283       -1.3310844014        2.3035063411
 C          5.0840474592       -1.7459403219        1.4768197253
 H          6.0746475272       -1.6037228271        1.8811090237
 H          4.9767369908       -2.6276124706        0.8638284997
 H          4.0733679454       -0.8853507538        3.2718305691
 H          3.0064778520       -1.9248906934        2.2510273254
 H          4.7475334169        0.4318960781        1.2849505814
