  62
        -98.94172476
 C          1.7121655102        0.4552461196       -0.3292601495
 C          2.8247549003        1.2873235792       -0.0394672086
 C          4.1468281402        0.7367380191       -0.3554552988
 C          4.2453495301       -0.4985738705       -0.8781224596
 C          5.5194355800       -1.1937550205       -1.2749706598
 C          6.2364072497       -1.8929221815       -0.1117600802
 C          6.9246925096       -0.9587440923        0.8843750406
 H          7.5659980694       -1.5788716229        1.5138841003
 H          7.5710438899       -0.2664241221        0.3440105512
 C          5.9618534296       -0.1718082227        1.7845562810
 H          4.9748642495       -0.6395505825        1.7579356705
 H          6.3101331394       -0.2188261535        2.8188231310
 C          5.8194141300        1.3062849375        1.4213642920
 H          5.0880904599        1.7567280972        2.0971338122
 H          6.7745339301        1.8143008872        1.5717679125
 C          5.3527985203        1.5605899886       -0.0178864279
 H          5.0723606006        2.6130522888       -0.1061972072
 H          6.1620234404        1.3540129590       -0.7180609579
 H          5.5146476794       -2.5210720117        0.4156261192
 H          6.9943409096       -2.5500484913       -0.5445029705
 H          5.2436436900       -1.9497051399       -2.0134908804
 H          6.1960801403       -0.4794018803       -1.7450412792
 O          3.1577540700       -1.2740895701       -1.1251949004
 C          1.8683929700       -0.8340485001       -0.8408196603
 O          0.9888297099       -1.6788573697       -1.0896540911
 O          2.7161930804        2.4370387588        0.4626436121
 C          0.3328835402        1.0009926496       -0.0051116094
 C         -0.4865999901       -0.0287192607        0.7284685498
 C         -0.0993749405       -0.4040393617        2.0127427096
 C         -0.8114875808       -1.3553553420        2.7160930488
 C         -1.9397140808       -1.9366869014        2.1635018481
 C         -2.3337194605       -1.5697822304        0.8830902783
 C         -1.6086870901       -0.6216673701        0.1733885191
 H         -1.9080610499       -0.3920840993       -0.8347416608
 N         -3.4722069905       -2.1369148598        0.2949658977
 S         -4.4440808601       -1.2154146089       -0.6984067219
 O         -5.7468428902       -1.8410717187       -0.6073713526
 O         -3.8889591398       -1.1238561981       -2.0249296617
 C         -4.4924821799        0.4021083706        0.0559947392
 C         -4.8766578802        0.5018722697        1.3787020192
 C         -4.9036705000        1.7510219193        1.9767586901
 C         -4.5516848297        2.8751594298        1.2454170110
 C         -4.1781745994        2.7602914306       -0.0843374191
 C         -4.1463600095        1.5122743210       -0.6863257299
 H         -3.8556588693        1.3763167217       -1.7159527600
 H         -3.9074280791        3.6359764010       -0.6528502484
 H         -4.5693091296        3.8468244594        1.7131913216
 H         -5.1967760602        1.8444639286        3.0099197801
 H         -5.1524811605       -0.3888922006        1.9189936985
 H         -4.0030921807       -2.7571491501        0.8874397071
 H         -2.4998265911       -2.6795035317        2.7107868375
 H         -0.4927594411       -1.6431269428        3.7065999386
 H          0.7798864495        0.0527348978        2.4464366601
 H          0.5293095702        1.8350327291        0.6893663913
 C         -0.4008206994        1.5972588206       -1.1964892491
 C          0.3433199510        2.2474392013       -2.3229034485
 C         -0.3876453093        0.9599967616       -2.5521698795
 H         -1.2969794491        0.9733210922       -3.1363037397
 H          0.1853546606        0.0539965016       -2.6751748901
 H         -0.0595897888        3.1530015917       -2.7506242779
 H          1.4228633109        2.2209691210       -2.2916980983
 H         -1.3291655494        2.0729536906       -0.8943237989
