  62
        -98.94165186
 C         -1.6919263395       -0.9550161729        0.2129925264
 C         -1.8785618177        0.4433115678        0.0458054280
 C         -3.1436788004        0.8673203799       -0.5662248967
 C         -4.0289984858       -0.0685639017       -0.9533250953
 C         -5.3790509011        0.2162154575       -1.5436199204
 C         -6.4552273151        0.3016860990       -0.4523118834
 C         -6.0766655079        1.2097809016        0.7177124674
 H         -6.9222291760        1.2187927469        1.4089791735
 H         -5.2308585652        0.7696228739        1.2508214275
 C         -5.7282158415        2.6500016022        0.3165397053
 H         -6.1125032700        2.8594293652       -0.6823902807
 H         -6.2268291482        3.3351907950        1.0054220871
 C         -4.2346912296        2.9782804661        0.3644961351
 H         -4.1229326967        4.0624334155        0.2796918966
 H         -3.8261548927        2.6818014751        1.3337675373
 C         -3.3750409644        2.3426212450       -0.7356011968
 H         -3.8141276886        2.5530612437       -1.7129367607
 H         -2.3854188076        2.8067166005       -0.6949254519
 H         -6.6332186991       -0.7031203063       -0.0621414211
 H         -7.3811266749        0.6579306952       -0.9075942679
 H         -5.3366217614        1.1500495031       -2.1008457511
 H         -5.6327174368       -0.5944180428       -2.2287964828
 O         -3.8065117422       -1.3972033465       -0.8046343925
 C         -2.6435110548       -1.8790864859       -0.2189792306
 O         -2.6045789996       -3.1235730393       -0.1547787908
 H          1.9180999168       -0.1422454097        0.2801347940
 C          1.7854133040       -1.0301634138       -0.3184127113
 C          0.6363504709       -1.7920522943       -0.1658414220
 C          0.4678234203       -2.9203103433       -0.9617014476
 C          1.4370086074       -3.2734759792       -1.8823789146
 C          2.5946101505       -2.5260972095       -2.0133088216
 C          2.7703986260       -1.3947020472       -1.2255760459
 N          3.9220900684       -0.6069706872       -1.3466049953
 S          4.5920475518        0.1419054314       -0.0093029952
 O          5.9659870891        0.3906234466       -0.3907932622
 O          4.3978389484       -0.6371959321        1.1910394136
 C          3.7354268956        1.6969323516        0.1077648111
 C          3.7019301102        2.5093419797       -1.0080140878
 C          3.0523827701        3.7300692872       -0.9266957370
 C          2.4519937449        4.1161471382        0.2621617184
 C          2.4983165885        3.2912408566        1.3747531481
 C          3.1471575877        2.0692829060        1.2995537437
 H          3.2016002857        1.3953241842        2.1404848376
 H          2.0268615605        3.5908822393        2.2969665711
 H          1.9424977921        5.0648616289        0.3229882903
 H          3.0127056885        4.3755117499       -1.7895041259
 H          4.1818746269        2.1758980069       -1.9130503065
 H          4.6243430439       -0.9653423763       -1.9766634919
 H          3.3557900555       -2.8134355698       -2.7228456289
 H          1.2955660385       -4.1491338802       -2.4980327239
 H         -0.4321965848       -3.5066188828       -0.8592928517
 C         -0.3900040889       -1.3867051331        0.8650883256
 H         -0.0093376720       -0.4853150505        1.3647968874
 C         -0.5516764521       -2.4752837951        1.9084560710
 C          0.5744057955       -2.7195369256        2.8667688672
 C         -0.6998772308       -2.0955789096        3.3496333198
 H         -1.3582817470       -2.6829968912        3.9719502747
 H         -0.6914345666       -1.0433171438        3.5942676078
 H          0.7910133360       -3.7362658205        3.1570187299
 H          1.4518974061       -2.0953068039        2.7782229533
 H         -1.1100121238       -3.3331434912        1.5578368871
 O         -1.0240520693        1.2982258708        0.4009626762
