  62
        -98.94589787
 C         -1.5740425474       -1.4734394153       -0.2081823584
 C         -1.5324825857       -0.0850983160       -0.4838915789
 C         -2.8373782773        0.5673828263       -0.6660326138
 C         -3.9609434689       -0.1665628061       -0.5708227295
 C         -5.3535132769        0.3825848169       -0.6803848812
 C         -5.8997943489        0.7916078170        0.6947925235
 C         -4.9411986380        1.6628039430        1.5067894910
 H         -5.4443656049        1.9123068300        2.4435982980
 H         -4.0566955916        1.0755330236        1.7640232969
 C         -4.5033620821        2.9539460143        0.8012880993
 H         -4.5641049608        3.7792031780        1.5139546471
 H         -5.1903475112        3.1804352242       -0.0149426771
 C         -3.0701303749        2.9298970833        0.2665709767
 H         -2.7956458292        3.9508096570       -0.0112038813
 H         -2.3883484615        2.6100784127        1.0585080850
 C         -2.8315450114        2.0409408089       -0.9601496073
 H         -3.5587848851        2.2827125083       -1.7378496350
 H         -1.8293637787        2.2612485745       -1.3389512366
 H         -6.8419529381        1.3230273416        0.5479725001
 H         -6.1076847101       -0.1148915977        1.2682001487
 H         -5.9971917410       -0.3917471942       -1.1011909095
 H         -5.3481362292        1.2402041240       -1.3502917127
 O         -3.9580589371       -1.5000399383       -0.3110496995
 C         -2.7687543599       -2.1846769657       -0.1145686281
 O         -2.9069382626       -3.3995619174        0.1362063409
 O         -0.4660668766        0.5736236971       -0.5730381285
 C         -0.2716632132       -2.2284294742       -0.0125287436
 C          0.5472752286       -1.5500029481        1.0576413023
 C         -0.0415653632       -1.2966515819        2.2945565199
 C          0.6606817203       -0.6499970006        3.2922550158
 C          1.9614154205       -0.2289622954        3.0747945900
 C          2.5614872299       -0.4875847451        1.8490695022
 C          1.8604444128       -1.1585529342        0.8557421825
 H          2.3588675561       -1.3636543145       -0.0757677986
 N          3.8807788859       -0.0870455782        1.6023649142
 S          4.3803830735        0.3363620476        0.0671808814
 O          4.5840745911       -0.8472735385       -0.7311932870
 O          5.5617273368        1.1429064977        0.2960780393
 C          3.0984185664        1.3503906177       -0.6452706276
 C          2.6630444682        2.4564175510        0.0554710289
 C          1.6971117779        3.2698503630       -0.5116091625
 C          1.1898216307        2.9689504342       -1.7650817780
 C          1.6380831426        1.8561838331       -2.4564912545
 C          2.6006339130        1.0365183110       -1.8920955741
 H          2.9711742410        0.1559037928       -2.3935649992
 H          1.2330939007        1.6177808802       -3.4274969856
 H          0.4348334337        3.6024870015       -2.2042617289
 H          1.3374046992        4.1319440330        0.0271544515
 H          3.0800267172        2.6701156673        1.0265240955
 H          4.2953902810        0.4975597581        2.3123385752
 H          2.5075203782        0.2903591937        3.8473886503
 H          0.1893854339       -0.4600194484        4.2449859860
 H         -1.0642820876       -1.6098575191        2.4581163405
 H         -0.5438891842       -3.2340559717        0.3394167087
 C          0.4536264874       -2.3507708334       -1.3363526203
 C          1.4071394056       -3.4814462238       -1.5747293114
 C          0.0832139014       -3.4558017899       -2.2769514878
 H          0.0633777506       -3.2475129746       -3.3361807131
 H         -0.6822498884       -4.1465081840       -1.9537799620
 H          2.3033025503       -3.2902448313       -2.1463796294
 H          1.5437465661       -4.1959121815       -0.7768719127
 H          0.6892396747       -1.3847020589       -1.7691382034
