  62
        -98.94468747
 C          2.0065094239        0.7580758582        0.5635362793
 C          1.9637580477        0.0576370766       -0.6660004370
 C          2.0271112183       -1.4045247816       -0.5681397740
 C          2.0593158716       -1.9930911591        0.6407515197
 C          2.0742777022       -3.4747795685        0.9046493911
 C          3.4677761504       -4.1139688591        0.8259767840
 C          4.0450289083       -4.2460751740       -0.5838617554
 H          4.9159676151       -4.9005101599       -0.5129106022
 H          3.3164305036       -4.7401020332       -1.2271878899
 C          4.4763216131       -2.9164573354       -1.2180736824
 H          5.4631682926       -3.0321244331       -1.6715569972
 H          4.5670664915       -2.1547014812       -0.4404148453
 C          3.5349266098       -2.3993902056       -2.3058969551
 H          3.5331283247       -3.0925773779       -3.1498771211
 H          3.9141511908       -1.4374133120       -2.6594259872
 C          2.0873012653       -2.1937781108       -1.8404957845
 H          1.5524804630       -1.6236141565       -2.6041499369
 H          1.5886977140       -3.1547409527       -1.7138959708
 H          4.1523574584       -3.5328284968        1.4479739716
 H          3.3909747160       -5.1136123429        1.2597940144
 H          1.6868220881       -3.6115321704        1.9168499506
 H          1.3999570613       -3.9731493439        0.2072185499
 O          2.0626489448       -1.2844264180        1.8027698199
 C          2.0402665867        0.1008228096        1.7914748336
 O          2.0559271053        0.6250019226        2.9259169527
 H         -0.4821296622        1.1689851515        0.9497229281
 C         -0.5352535636        1.9663354616        0.2212275300
 C          0.6132240858        2.6779053915       -0.1022459494
 C          0.5157654529        3.7110309265       -1.0248827764
 C         -0.6963145845        3.9924586150       -1.6320946625
 C         -1.8250799963        3.2479683589       -1.3448840934
 C         -1.7417084734        2.2257544842       -0.4052275890
 N         -2.8713599872        1.4598759301       -0.0656495564
 S         -2.6384955585       -0.1604984649        0.3514430497
 O         -2.2819597744       -0.2330361193        1.7475918261
 O         -1.7368727070       -0.8016848581       -0.5786769694
 C         -4.2974424155       -0.7782263009        0.1290471585
 C         -4.6309018666       -1.4166972642       -1.0504523626
 C         -5.9316367429       -1.8622572480       -1.2272182696
 C         -6.8722365469       -1.6597481564       -0.2285324966
 C         -6.5225600743       -1.0177644808        0.9503133406
 C         -5.2235807545       -0.5710091473        1.1339241282
 H         -4.9013858715       -0.0760053963        2.0352047776
 H         -7.2554305302       -0.8644825360        1.7258826866
 H         -7.8835711534       -2.0071264837       -0.3686604558
 H         -6.2049623984       -2.3647459057       -2.1410252017
 H         -3.8630371335       -1.5580435536       -1.7942874008
 H         -3.6283996742        1.5658258473       -0.7276252183
 H         -2.7621836102        3.4519417656       -1.8400780723
 H         -0.7575400106        4.7923612507       -2.3543667747
 H          1.3910879742        4.2855682454       -1.2801592111
 C          1.9036971048        2.2728702662        0.5699446512
 H          1.8502740764        2.5717124689        1.6277077161
 C          3.1344130689        2.8947959899       -0.0560507551
 C          3.6071614325        4.2465922370        0.3850306900
 C          4.3787062038        3.0208287038        0.7688031829
 H          5.3317993644        2.8388115565        0.2955079550
 H          4.3278462797        2.6808384231        1.7932761244
 H          3.0398119580        4.7477881686        1.1546371853
 H          4.0357980975        4.9086490976       -0.3520821143
 H          3.2496578251        2.6233535287       -1.0990902567
 O          1.8799530598        0.6237668234       -1.7875776963
