  62
        -98.94701609
 C         -1.2608519603       -0.7558192168        0.6517079218
 C         -2.1151414424       -0.7221833171       -0.4762150526
 C         -2.8294533043        0.5412077007       -0.6975264547
 C         -2.5875519875        1.5970421451        0.0994551791
 C         -3.2096694501        2.9616115423       -0.0241297117
 C         -4.5881008215        3.0843426251        0.6402340021
 C         -5.7291098808        2.3763776754       -0.0914909433
 H         -6.6615137292        2.7241951759        0.3575373275
 H         -5.7352969510        2.6864284796       -1.1368920881
 C         -5.6814485076        0.8444535227       -0.0068689747
 H         -5.0146409634        0.5454265936        0.8049595676
 H         -6.6752348688        0.4621432458        0.2363852258
 C         -5.2323018111        0.1525026014       -1.2938615689
 H         -5.9626027569        0.3382385496       -2.0844891825
 H         -5.1996830877       -0.9244668227       -1.1110146860
 C         -3.8491176467        0.5886909839       -1.7952215711
 H         -3.5283010154       -0.1079764410       -2.5739096792
 H         -3.9006563938        1.5895724105       -2.2240265199
 H         -4.5179944276        2.7030827543        1.6615281002
 H         -4.8270404533        4.1487691898        0.6980901427
 H         -2.5255291996        3.6592640561        0.4642444353
 H         -3.2837039475        3.2341501849       -1.0775278745
 O         -1.7042964057        1.5463288948        1.1311565942
 C         -1.0286314285        0.3750704265        1.4334838226
 O         -0.2558136777        0.4693912010        2.4098312589
 H          1.3398019927       -0.3242877642        0.1081899644
 C          1.3626878886       -1.2256779337       -0.4837636894
 C          0.4915920086       -2.2605166208       -0.1637550695
 C          0.5270503779       -3.4212063314       -0.9225640520
 C          1.3897122520       -3.5170127035       -2.0020670390
 C          2.2182605870       -2.4661632192       -2.3478949070
 C          2.2037586331       -1.3050374538       -1.5796007060
 N          3.0481946818       -0.2338861846       -1.8896197373
 S          2.8096101927        1.3237902892       -1.3402393185
 O          1.4115773101        1.6781938824       -1.2572679929
 O          3.6145409464        2.1291506408       -2.2357512523
 C          3.5840323493        1.3121607663        0.2628600504
 C          4.9452895837        1.0744255050        0.2999087813
 C          5.5905788982        1.0477939549        1.5245135446
 C          4.8670879395        1.2572076006        2.6896142931
 C          3.5035477222        1.4977009528        2.6360651481
 C          2.8523918868        1.5286132592        1.4119015472
 H          1.7887187398        1.7032382829        1.3494305780
 H          2.9308987371        1.6545721357        3.5362772887
 H          5.3670779899        1.2336392963        3.6450728550
 H          6.6516593575        0.8626434653        1.5690320732
 H          5.4696832104        0.9255313360       -0.6292257956
 H          3.5112654342       -0.2780332740       -2.7838962653
 H          2.8686077242       -2.5358162154       -3.2062771201
 H          1.4033248385       -4.4194018172       -2.5944589461
 H         -0.1315195991       -4.2401838404       -0.6854659962
 C         -0.4689958871       -2.0133607843        0.9748282207
 H          0.1187950650       -1.7809160976        1.8745038796
 C         -1.3889095923       -3.1765722144        1.2736281190
 C         -0.8989507223       -4.3211235324        2.1072715843
 C         -1.8998706606       -3.3584320414        2.6701273364
 H         -2.9179119918       -3.6909616991        2.8069897254
 H         -1.5683299251       -2.6512259185        3.4167186500
 H          0.1141859434       -4.2715195370        2.4763077553
 H         -1.2311160695       -5.3181284358        1.8608127245
 H         -2.0728324134       -3.3891592379        0.4606642755
 O         -2.2799992834       -1.6930488394       -1.2607366107
