  62
        -98.93686334
 C          1.8674074295        1.4376710577        0.4524021984
 C          1.5880631804        0.2188084253       -0.2118053026
 C          2.5607166588       -0.8767865912       -0.0154028842
 C          3.6335401139       -0.6873520688        0.7732692493
 C          4.7528570567       -1.6219356751        1.1820849599
 C          4.9977783500       -2.9272815422        0.4294666179
 C          5.4799776345       -2.7545730406       -1.0104429499
 H          6.4948749986       -2.3493032864       -0.9914763606
 H          5.5256504975       -3.7414469025       -1.4762461438
 C          4.6322830574       -1.8322005636       -1.8829732896
 H          4.6668098447       -0.8162089838       -1.4839051071
 H          5.0871366855       -1.8011685350       -2.8768808605
 C          3.1734436874       -2.2517910536       -2.0528854713
 H          2.7346768840       -1.6093067317       -2.8213996044
 H          3.1272837085       -3.2808668135       -2.4144981201
 C          2.2962790503       -2.1339049618       -0.7938417551
 H          1.2531424020       -2.0823844900       -1.1195514800
 H          2.4007672866       -3.0094755843       -0.1575120141
 H          4.1116823490       -3.5543043328        0.4612350866
 H          5.7805261143       -3.4590874186        0.9772380147
 H          5.6661933645       -1.0188811581        1.1572355186
 H          4.5708163472       -1.8593921421        2.2361172404
 O          3.8439363669        0.4967938582        1.4190862502
 C          2.9859222255        1.5703848734        1.2808558055
 O          3.3209842439        2.5752916116        1.9385496654
 H         -1.0149503669        2.0324894437       -1.3996345844
 C         -1.3390909352        1.9464231676       -0.3746289815
 C         -0.4598405720        2.2524498607        0.6507656442
 C         -0.8890021728        2.1073525437        1.9660686617
 C         -2.1729361788        1.6755219715        2.2455452403
 C         -3.0425034646        1.3478059448        1.2198042139
 C         -2.6114617093        1.4662761465       -0.0951368115
 N         -3.4566472342        1.0770927113       -1.1462837149
 S         -4.4254914267       -0.2662961783       -0.9399594700
 O         -4.6158873564       -0.8041595867       -2.2701555898
 O         -5.6355644382        0.1223082471       -0.2543683376
 C         -3.5402446685       -1.4428216667        0.0760690961
 C         -2.1829064939       -1.6378232684       -0.0848322363
 C         -1.5491324082       -2.5826193589        0.7077732161
 C         -2.2726836784       -3.3209522749        1.6303671354
 C         -3.6362476079       -3.1176086906        1.7743871529
 C         -4.2753559313       -2.1691330140        0.9931105393
 H         -5.3309466233       -1.9684107729        1.0814607665
 H         -4.2005379326       -3.6900698856        2.4929021592
 H         -1.7697577081       -4.0544958386        2.2406624844
 H         -0.4854057373       -2.7254458849        0.5999030579
 H         -1.6118706146       -1.0525571428       -0.7886068574
 H         -3.0012873115        1.0624222631       -2.0472516099
 H         -4.0428989260        0.9980305354        1.4193748418
 H         -2.4974363130        1.5798584040        3.2704522550
 H         -0.2002784721        2.3314734799        2.7689302416
 C          0.9632840497        2.6579245952        0.3656479898
 H          1.3008129607        3.3166766254        1.1808866717
 C          1.0990288416        3.4570991415       -0.9228917453
 C          2.4558095025        3.7392348172       -1.4944860283
 C          1.5019179020        2.8506794547       -2.2318468991
 H          1.0406139599        3.2315897018       -3.1317599685
 H          1.7044865159        1.7921062118       -2.2624914406
 H          2.6575628526        4.7237517858       -1.8886679750
 H          3.3031652488        3.2832040904       -1.0027183237
 H          0.3784766868        4.2684524355       -0.9671577235
 O          0.5846696608        0.0216507263       -0.9442846678
