  62
        -98.94493394
 C          1.9706079419        0.8414568737        0.0486859235
 C          2.2606066217       -0.1199937931        1.0439429399
 C          2.3223279371       -1.5125200252        0.5897331764
 C          2.0695028881       -1.8046622580       -0.6992247006
 C          2.0430102086       -3.1825597033       -1.3042719075
 C          3.4228396795       -3.7189356996       -1.7099189646
 C          4.3292171463       -4.1270030200       -0.5478717450
 H          3.7885135249       -4.8081624962        0.1097904632
 H          5.1674183770       -4.6809590561       -0.9748927155
 C          4.8799055538       -2.9493324685        0.2681651109
 H          4.7655464983       -2.0255057547       -0.3033877482
 H          5.9493021399       -3.0919235540        0.4381479874
 C          4.2245108194       -2.7656516929        1.6369453215
 H          4.4391796017       -3.6319354438        2.2664440692
 H          4.6640190360       -1.8853294941        2.1125963665
 C          2.7039476437       -2.5651319062        1.5865318358
 H          2.2052510466       -3.5062849702        1.3542211809
 H          2.3660655422       -2.2264614368        2.5693440376
 H          3.9252803526       -2.9623098033       -2.3167183241
 H          3.2578044514       -4.5958608625       -2.3400636730
 H          1.5689865803       -3.8752571138       -0.6078092674
 H          1.4196663148       -3.1124069315       -2.1985085383
 O          1.7827858818       -0.8519027000       -1.6256289651
 C          1.7190765735        0.4877030850       -1.2772105041
 O          1.4482462190        1.2527860071       -2.2234395910
 H         -0.4282036130        0.9572104208        0.8925981683
 C         -0.6282653268        1.9092531566        0.4212646656
 C          0.4258613173        2.7633092873        0.1218992550
 C          0.1394343660        3.9884032249       -0.4659098770
 C         -1.1668320944        4.3255101716       -0.7774161735
 C         -2.2061995999        3.4498402214       -0.5250031509
 C         -1.9314530316        2.2297064220        0.0834359235
 N         -2.9609270183        1.3167342008        0.3776824443
 S         -2.6074744850       -0.3315717368        0.2502797601
 O         -1.9871800591       -0.7685071502        1.4771657041
 O         -1.8833735923       -0.6034533041       -0.9710317738
 C         -4.2594039838       -0.9982529211        0.1540800011
 C         -4.9922306283       -1.1194382461        1.3198877836
 C         -6.2883169309       -1.6046444963        1.2488297005
 C         -6.8273941577       -1.9581295662        0.0205563607
 C         -6.0792275623       -1.8332531358       -1.1403276035
 C         -4.7825857455       -1.3469171853       -1.0764874814
 H         -4.1595764908       -1.2384922576       -1.9500545698
 H         -6.4989816259       -2.1120512936       -2.0933706947
 H         -7.8360191483       -2.3363068016       -0.0321392073
 H         -6.8718058666       -1.7057384926        2.1495814735
 H         -4.5261734817       -0.8410190087        2.2505844290
 H         -3.8257861945        1.5422482606       -0.0958461903
 H         -3.2200081324        3.7036305530       -0.7949265330
 H         -1.3752785175        5.2770686171       -1.2425743286
 H          0.9399290199        4.6727478132       -0.6947260177
 C          1.8244511113        2.2983475661        0.4481978403
 H          1.9498528766        2.3169019485        1.5417899035
 C          2.9086917773        3.1455777678       -0.1838120799
 C          3.4054143098        4.3792506810        0.5076218187
 C          4.2712971311        3.1585253946        0.4395925738
 H          5.1345584245        3.1705374325       -0.2086307902
 H          4.4081811952        2.5749961707        1.3384308544
 H          3.6786462035        5.2326746907       -0.0943413768
 H          2.9614063154        4.6315105101        1.4586730529
 H          2.8523054491        3.1480443187       -1.2666859121
 O          2.4513747222        0.1726148154        2.2568228373
