  62
        -98.94276337
 C         -0.7688817695       -1.9781951082        0.2418885260
 C         -1.4008251448       -1.1327985617        1.1833920154
 C         -2.6451785508       -0.4902817359        0.7448989960
 C         -3.1224494733       -0.7413999253       -0.4871635556
 C         -4.3753727378       -0.1687265092       -1.0931159012
 C         -4.3472914521        1.3516169442       -1.3480812389
 C         -4.9825248690        2.1875263874       -0.2294872559
 H         -5.5617375843        2.9954929008       -0.6811663086
 H         -5.6896282039        1.5626054144        0.3180291151
 C         -4.0042894908        2.8351022396        0.7553938728
 H         -3.5629905099        3.7195327297        0.2895878415
 H         -4.5757147288        3.1685929821        1.6248603708
 C         -2.8490235095        1.9516927524        1.2274226144
 H         -2.1058397110        1.8737987569        0.4287477669
 H         -2.3548684617        2.4579588974        2.0602139777
 C         -3.2595383021        0.5292562037        1.6594991853
 H         -2.8788179521        0.3215801008        2.6619065857
 H         -4.3438191913        0.4296246312        1.6747398616
 H         -3.3187493785        1.6691662127       -1.5265165838
 H         -4.9045374944        1.5319687700       -2.2689862318
 H         -4.5059945639       -0.6889997517       -2.0441158700
 H         -5.2261711676       -0.4170812890       -0.4545590024
 O         -2.5092604203       -1.5976385475       -1.3483608887
 C         -1.2970772163       -2.1934477905       -1.0310162646
 O         -0.8109993959       -2.8848028103       -1.9467701902
 O         -0.9352061881       -0.9111697980        2.3346581223
 C          0.5941000010       -2.5509555771        0.5774634367
 C          1.6558445430       -1.9312021090       -0.3030129637
 C          2.8316907216       -2.5878407866       -0.6474350559
 C          3.7755878159       -1.9595956752       -1.4417426861
 C          3.5794303575       -0.6694029141       -1.9013381360
 C          2.4072596679       -0.0034266173       -1.5613402421
 C          1.4690755612       -0.6357360189       -0.7625892001
 H          0.5549302650       -0.1154346209       -0.5285610063
 N          2.1437886952        1.2918188898       -2.0240779977
 S          1.1815073871        2.3542047845       -1.1698267592
 O         -0.1953645407        1.9261540331       -1.1834487749
 O          1.4473999028        3.6352797577       -1.7892943276
 C          1.8473609537        2.3500645710        0.4843679025
 C          1.1732127665        1.7482962894        1.5258559791
 C          1.7577657680        1.7322905895        2.7829467302
 C          2.9983727474        2.3174237032        2.9778810718
 C          3.6606570137        2.9278388150        1.9226868618
 C          3.0835765759        2.9422338191        0.6642850609
 H          3.5599384957        3.4169538007       -0.1780676994
 H          4.6232917370        3.3878581681        2.0773074613
 H          3.4490274692        2.2997253365        3.9576551059
 H          1.2336860356        1.2503764341        3.5929959912
 H          0.2094758620        1.2947383145        1.3583232880
 H          2.9037756939        1.7522248005       -2.5005922715
 H          4.3145527744       -0.1874904928       -2.5270807471
 H          4.6810478802       -2.4834687479       -1.7077712317
 H          3.0033494782       -3.5942256866       -0.3017903090
 H          0.7943150888       -2.2367049572        1.6138761811
 C          0.5879685159       -4.0648064717        0.5228699721
 C          1.4240381762       -4.8643572040        1.4760666147
 C         -0.0646397289       -4.8236137949        1.6385687224
 H         -0.6390197331       -5.7048829812        1.3959046419
 H         -0.4754916670       -4.2466625025        2.4543347265
 H          1.8733612888       -5.7801885810        1.1225672023
 H          2.0231055123       -4.3242402961        2.1936281439
 H          0.4529602589       -4.4427139592       -0.4840356935
