  62
        -98.93913910
 C         -2.4581314797       -0.8489539210        0.7966297994
 C         -3.2598515398       -0.5165096511       -0.3226662706
 C         -4.0045044201        0.7481813987       -0.2226221406
 C         -3.8701019702        1.5110043087        0.8771677795
 C         -4.5303806306        2.8425811886        1.0850860395
 C         -3.6400325108        3.9906166188        0.5891533095
 C         -3.0831154208        3.7773507389       -0.8185014805
 H         -2.4957712610        4.6620993591       -1.0734272705
 H         -2.3954776106        2.9282610791       -0.8066166605
 C         -4.1520423608        3.5462336887       -1.8957050405
 H         -5.1231429708        3.8856902085       -1.5334742805
 H         -3.9033116909        4.1499158788       -2.7710283305
 C         -4.2681392904        2.0973766187       -2.3728446805
 H         -4.8859086404        2.0848284186       -3.2747681205
 H         -3.2796978103        1.7208082189       -2.6488152305
 C         -4.8957542202        1.1154676285       -1.3755703105
 H         -5.0929355600        0.1816981685       -1.9102292006
 H         -5.8468563303        1.5133630183       -1.0159200905
 H         -4.2214618711        4.9139536286        0.6160551596
 H         -2.7985406409        4.0983714290        1.2773355495
 H         -4.7136545506        2.9721229785        2.1530595595
 H         -5.4829471606        2.8544976183        0.5590745595
 O         -3.0654433502        1.1732599789        1.9175976494
 C         -2.3342275199       -0.0014551910        1.8982531594
 O         -1.6171827098       -0.1760192508        2.9058108394
 O         -3.3612121896       -1.2331917711       -1.3514897506
 C         -1.6475703594       -2.1352012008        0.8197051893
 C         -0.5289374194       -2.0238148605       -0.1888653307
 C         -0.4557767293       -2.7812624604       -1.3489857807
 C          0.5946004307       -2.6014729101       -2.2337507007
 C          1.5889360605       -1.6752652199       -1.9806101207
 C          1.5294222903       -0.9171621800       -0.8171540007
 C          0.4766581304       -1.0979977602        0.0666249693
 H          0.4226136802       -0.5086689303        0.9742375694
 N          2.5353526701        0.0351517203       -0.5504793907
 S          4.1295932202       -0.5124830594       -0.7028841307
 O          4.4823776802       -0.5016887592       -2.1000914707
 O          4.2836484505       -1.7797333593       -0.0231328607
 C          5.0279883699        0.7646663308        0.1548058393
 C          5.3918356696        1.9050425409       -0.5355426806
 C          6.0780992094        2.9037690511        0.1367944594
 C          6.3862312095        2.7469719111        1.4800199694
 C          6.0147941997        1.5963301910        2.1592561594
 C          5.3276466200        0.5938748109        1.4930872093
 H          5.0296695702       -0.3216558292        1.9790110993
 H          6.2581450798        1.4755883210        3.2026298793
 H          6.9223024193        3.5246021712        2.0008024794
 H          6.3713544792        3.7987210412       -0.3878485006
 H          5.1394962696        1.9783649109       -1.5804601006
 H          2.4018534100        0.4699446402        0.3532019794
 H          2.4149541704       -1.5360680397       -2.6590911907
 H          0.6393996408       -3.1933711801       -3.1356757007
 H         -1.2239077191       -3.5044033106       -1.5667350907
 H         -1.1897418394       -2.1823612207        1.8180693193
 C         -2.5294011891       -3.3507512910        0.6348838093
 C         -2.0283097388       -4.6967167509        1.0612971593
 C         -3.1107847289       -4.0173542111        1.8437991693
 H         -4.1152231188       -4.4084604514        1.7830415093
 H         -2.8616329290       -3.6039343411        2.8104831293
 H         -2.2892023586       -5.5575473709        0.4648034893
 H         -1.0413047788       -4.7463002706        1.4963172793
 H         -3.1528850091       -3.2939897111       -0.2485524707
