  62
        -98.93580592
 C         -1.7538780537       -0.7385837667        0.7226316257
 C         -2.7301108666       -1.1600451869       -0.2125458846
 C         -4.0745559191       -0.5789223474       -0.0506841691
 C         -4.3040444491        0.2922938227        0.9472481404
 C         -5.5920590111        1.0273117400        1.1876634123
 C         -5.7250228198        2.1970593879        0.1916555075
 C         -6.8784010968        2.0516111894       -0.8014385658
 H         -6.7407837319        2.8103881047       -1.5747760995
 H         -7.8174932925        2.2705213102       -0.2888284691
 C         -7.0172007753        0.6793419029       -1.4675900327
 H         -7.6883888527        0.8065578136       -2.3196565083
 H         -7.5112323039       -0.0121958123       -0.7834490325
 C         -5.7135737536        0.0368915074       -1.9587542250
 H         -4.9567951666        0.7982857990       -2.1491889465
 H         -5.9167250182       -0.4547504831       -2.9122656482
 C         -5.1330685104       -1.0346800633       -1.0171393203
 H         -4.6448688427       -1.8033074756       -1.6232583335
 H         -5.9458502805       -1.5166461412       -0.4670131981
 H         -4.7829458841        2.2914954676       -0.3528523688
 H         -5.8627226443        3.1293083847        0.7416981863
 H         -5.5662054613        1.4013083798        2.2114210906
 H         -6.4308518257        0.3419540626        1.0878708694
 O         -3.3424343001        0.6695650376        1.8300687011
 C         -2.0555667242        0.1690216198        1.7417573943
 O         -1.2820523133        0.5952939212        2.6237549421
 O         -2.5155098754       -1.9835141919       -1.1396408768
 C         -0.3152777223       -1.2355106732        0.6899390445
 C          0.4503897622       -0.5239353141       -0.4002150314
 C          0.3003697934       -0.8523880152       -1.7439458534
 C          0.9943387345       -0.1557048567       -2.7159058280
 C          1.8632060615        0.8645171227       -2.3706173531
 C          2.0184538294        1.2029306058       -1.0320520208
 C          1.3105577508        0.5111888037       -0.0586907921
 H          1.4231458045        0.8011072232        0.9757974751
 N          2.8933998757        2.2366767992       -0.6491998344
 S          4.0250301856        1.9209948320        0.5434121654
 O          3.3862387386        1.8318096836        1.8308049835
 O          5.0171333028        2.9624899765        0.3906719852
 C          4.7147695730        0.3446914720        0.0750296537
 C          4.2245926323       -0.8126894755        0.6445874790
 C          4.7120639616       -2.0333305363        0.2046974847
 C          5.6745802693       -2.0745525983       -0.7919316545
 C          6.1620494968       -0.9024010209       -1.3499201637
 C          5.6751006938        0.3201841286       -0.9177265982
 H          6.0325184446        1.2550931337       -1.3180931491
 H          6.9150753165       -0.9382595369       -2.1205279649
 H          6.0482756064       -3.0270773081       -1.1326862171
 H          4.3350403316       -2.9459512623        0.6381013979
 H          3.4798579748       -0.7364367188        1.4204014737
 H          3.3314187363        2.7088696819       -1.4275850487
 H          2.4086077751        1.4041691723       -3.1301082058
 H          0.8623664400       -0.4146021623       -3.7553987656
 H         -0.3901997890       -1.6322886397       -2.0215695314
 H          0.1188121500       -0.9303763703        1.6519911837
 C         -0.2163602826       -2.7435994087        0.5780452038
 C          1.0306540450       -3.4257116560        1.0497908636
 C         -0.2419298787       -3.5674008131        1.8287025983
 H         -0.7594002146       -4.5147895040        1.8105870210
 H         -0.3261503692       -3.0436260888        2.7704607167
 H          1.3922014623       -4.2785115588        0.4965367989
 H          1.8080324180       -2.8047317358        1.4686327216
 H         -0.7200908326       -3.1501540214       -0.2880169671
