  62
        -98.94497930
 C          2.0610119668        1.3369972646        0.0227592926
 C          2.6526087125        0.6741420866        1.1243187721
 C          3.8274749216       -0.1498085416        0.8207253977
 C          4.2736820826       -0.2343028406       -0.4460533178
 C          5.4727142305       -1.0156676056       -0.9108144631
 C          5.1850218450       -2.4993143310       -1.1789237085
 C          4.9683897317       -3.3558271230        0.0693151327
 H          4.9916886753       -4.3995653221       -0.2502611671
 H          5.7999348315       -3.2079770710        0.7590598489
 C          3.6417169075       -3.0925339034        0.7955955117
 H          3.1656158416       -4.0447639317        1.0413047381
 H          2.9611203786       -2.5592435030        0.1270426392
 C          3.7789942069       -2.3041249246        2.0983936789
 H          2.7791275670       -2.1470309695        2.5115512759
 H          4.3519709860       -2.8892259582        2.8210594094
 C          4.4476601987       -0.9321629955        1.9390667056
 H          4.2978120632       -0.3687022904        2.8632518098
 H          5.5176424477       -1.0528724088        1.7723525441
 H          4.3096476054       -2.5738120659       -1.8285881835
 H          6.0396695235       -2.9034756979       -1.7262919918
 H          6.2757930421       -0.9259650420       -0.1788177794
 H          5.8001701858       -0.5550001630       -1.8452745140
 O          3.6743216379        0.4150392310       -1.4786330649
 C          2.5418960752        1.1934412135       -1.2790350088
 O          2.0758144361        1.6943158005       -2.3189333100
 O          2.2158903724        0.7628774512        2.3039890645
 C          0.8300236245        2.1939734112        0.2587916651
 C         -0.3520659246        1.5934347876       -0.4620020652
 C         -1.1805208476        2.3088665820       -1.3153675282
 C         -2.2359211714        1.6814885588       -1.9563207205
 C         -2.4954826576        0.3393963029       -1.7526400317
 C         -1.6867249135       -0.3804886398       -0.8809173354
 C         -0.6311769004        0.2494094132       -0.2409014640
 H          0.0008747233       -0.3140602713        0.4345241073
 N         -1.9530458719       -1.7394893545       -0.6482833719
 S         -3.5443738765       -2.2111543645       -0.4393428068
 O         -3.4809323455       -3.3937122278        0.3907853113
 O         -4.1739138318       -2.3805779488       -1.7254175434
 C         -4.3263052697       -0.8697650993        0.4402774274
 C         -5.4099402062       -0.2217768125       -0.1165306853
 C         -5.9874515308        0.8327461707        0.5725166018
 C         -5.4711825209        1.2211508929        1.7987320321
 C         -4.3840251083        0.5575775161        2.3469885519
 C         -3.8042321878       -0.4987532368        1.6636523690
 H         -2.9603340571       -1.0361310827        2.0663067766
 H         -3.9829376328        0.8605513320        3.3009445781
 H         -5.9176041849        2.0452948260        2.3322883860
 H         -6.8340949883        1.3489419314        0.1495804151
 H         -5.7763541896       -0.5544566637       -1.0740550785
 H         -1.3451818868       -2.1704554450        0.0319316662
 H         -3.3001611497       -0.1660235018       -2.2614415782
 H         -2.8630591469        2.2462294935       -2.6288784224
 H         -0.9934541427        3.3550758817       -1.4907173120
 H          0.6365144005        2.1297339945        1.3399593335
 C          1.1006951723        3.6386562187       -0.1011262064
 C          0.3341562219        4.7366723804        0.5717891707
 C          1.7788706565        4.5190503817        0.9040529033
 H          2.5053737355        5.2366313986        0.5533728760
 H          2.0258866008        4.0820315693        1.8606835501
 H          0.0686227866        5.6091417628       -0.0056390368
 H         -0.4026896851        4.4526510450        1.3075202387
 H          1.3758190552        3.7655236539       -1.1418772310
