  62
        -98.93786104
 C         -1.2500007565       -1.8108808063       -0.4090983677
 C         -1.4327930096       -0.5634382691       -1.0530542654
 C         -2.7503237151        0.0859761391       -0.8724458251
 C         -3.6984388100       -0.5189452068       -0.1353337053
 C         -5.1301882504       -0.1348974859        0.1802872096
 C         -5.6738597068        1.2337906165       -0.2176265882
 C         -5.1131985411        2.4005587587        0.5987088315
 H         -5.4126363196        3.3356421222        0.1209673964
 H         -5.5692249477        2.3741635855        1.5916592929
 C         -3.5991487637        2.4037588143        0.7966185897
 H         -3.3455334415        3.2272409543        1.4701082940
 H         -3.2885491848        1.4833876599        1.2954503725
 C         -2.7648929514        2.5785860272       -0.4696479983
 H         -1.7183824849        2.6393722956       -0.1557140178
 H         -3.0272917182        3.5205408488       -0.9572101002
 C         -2.8885199981        1.4444693631       -1.4978911183
 H         -3.8139541616        1.5272459018       -2.0625000788
 H         -2.0606220274        1.5394667068       -2.2071833499
 H         -5.5271305694        1.3968685160       -1.2814332460
 H         -6.7537787978        1.2039580091       -0.0495048378
 H         -5.7484797019       -0.9054887713       -0.2933739250
 H         -5.2490239812       -0.2691414553        1.2603941277
 O         -3.4774167878       -1.7299536879        0.4594042136
 C         -2.2637228137       -2.3829462999        0.3599844532
 O         -2.2144571959       -3.4642968863        0.9823222410
 H          0.6329224041       -0.0982614176        0.4068754354
 C          1.1785434804       -0.8566490337        0.9444526934
 C          0.9884758166       -2.1961104705        0.6344071370
 C          1.6883164811       -3.1561732870        1.3570724453
 C          2.5617125714       -2.7813369644        2.3623171084
 C          2.7527659523       -1.4459342782        2.6657270034
 C          2.0474811277       -0.4773112813        1.9580650892
 N          2.1994066568        0.8748441421        2.2721322851
 S          1.7911010191        2.1128949522        1.2378407332
 O          2.4472395285        3.2675119418        1.8193046808
 O          0.3601562341        2.2130354364        1.1067564808
 C          2.5610881490        1.7440384917       -0.3264137491
 C          1.8553837606        1.9381847953       -1.4948128868
 C          2.4870445759        1.7003356698       -2.7052832947
 C          3.8052328100        1.2744545403       -2.7256244716
 C          4.5015873849        1.0840956342       -1.5415661411
 C          3.8773704490        1.3245774401       -0.3289466199
 H          4.3957882010        1.1927115189        0.6068129899
 H          5.5260371705        0.7487248826       -1.5604229980
 H          4.2928175131        1.0867875361       -3.6693275740
 H          1.9396270337        1.8411918852       -3.6232321724
 H          0.8236357335        2.2444279502       -1.4416807683
 H          2.9319589224        1.1105122413        2.9226514251
 H          3.4283714935       -1.1512169616        3.4538346254
 H          3.0982493237       -3.5359409241        2.9169066220
 H          1.5287515050       -4.2018642836        1.1387880749
 C          0.0441528304       -2.6046057476       -0.4683266808
 H         -0.2507835599       -3.6486565735       -0.2739369260
 C          0.7038224893       -2.5707691215       -1.8409290774
 C          1.9461040375       -1.7924060786       -2.1378533094
 C          2.0013290108       -3.2872503984       -2.0745452803
 H          2.1245901671       -3.8413564522       -2.9925765218
 H          2.4865031032       -3.7325422018       -1.2195672036
 H          2.0120733120       -1.3044993361       -3.0975645344
 H          2.3947270561       -1.2260198480       -1.3367910257
 H         -0.0311369442       -2.6243409373       -2.6374899409
 O         -0.5621072212       -0.0034173647       -1.7645018973
