  62
        -98.94375289
 C         -1.6560185363       -1.5098783052       -0.2993126930
 C         -2.6980414426       -0.8166646514        0.3585568249
 C         -3.0456115568        0.4964401012       -0.1957795698
 C         -2.4116601640        0.9450379089       -1.2940406509
 C         -2.6491165324        2.2601259041       -1.9850833601
 C         -2.2034709350        3.5018933202       -1.1870321540
 C         -3.3301674405        4.1715947306       -0.3900708513
 H         -4.2844656495        3.9296006999       -0.8604544860
 H         -3.2114689536        5.2549518009       -0.4585777676
 C         -3.3938326470        3.8236439678        1.1004008905
 H         -4.3678169575        4.1430070550        1.4788234999
 H         -2.6283361140        4.3942628171        1.6317755148
 C         -3.1819051330        2.3511874219        1.4531526393
 H         -3.4364364520        2.2125443835        2.5065683255
 H         -2.1201012685        2.1048027493        1.3585584613
 C         -3.9886104127        1.3563538566        0.5934854342
 H         -4.6783293160        1.8838624911       -0.0636232889
 H         -4.5642708295        0.6884311418        1.2377475912
 H         -1.8178091774        4.2256843522       -1.9072211937
 H         -1.3762896610        3.2265844625       -0.5306459146
 H         -3.7082341634        2.3460419495       -2.2376227694
 H         -2.0817994481        2.2114060413       -2.9165714492
 O         -1.4617642838        0.2170578824       -1.9375091052
 C         -1.0068750115       -0.9810102683       -1.4132160875
 O         -0.0426405091       -1.4773151732       -2.0297778284
 O         -3.2953088216       -1.2682729175        1.3743767504
 C         -1.1019532362       -2.7795889724        0.3226252337
 C          0.3285534344       -2.5196643228        0.7320861052
 C          1.3719694852       -3.4112661946        0.5198455836
 C          2.6675781361       -3.0717747275        0.8732116114
 C          2.9547154514       -1.8323454198        1.4157014910
 C          1.9144177891       -0.9391507880        1.6437412587
 C          0.6149598202       -1.3014429745        1.3361810833
 H         -0.1801917012       -0.5958859251        1.5278505392
 N          2.1394424987        0.3575634989        2.1558084526
 S          1.7996061204        1.6246557270        1.1076680771
 O          2.1776702415        2.8217255567        1.8282000972
 O          0.4311597598        1.5536874316        0.6675438890
 C          2.9336787840        1.3669354783       -0.2445970839
 C          2.6333209086        0.4354501735       -1.2179149677
 C          3.5714274296        0.1811877085       -2.2074571894
 C          4.7835605945        0.8533426474       -2.2062685992
 C          5.0690270015        1.7868955574       -1.2208022556
 C          4.1394321981        2.0426916239       -0.2265100632
 H          4.3151161433        2.7598260044        0.5592250166
 H          6.0111665083        2.3109581270       -1.2223800820
 H          5.5081601676        0.6482568899       -2.9784542947
 H          3.3388818182       -0.5462828115       -2.9686213764
 H          1.6833233759       -0.0761404653       -1.2070678281
 H          3.0687086405        0.4890762397        2.5326781009
 H          3.9696512732       -1.5549612881        1.6578948286
 H          3.4684116895       -3.7742402679        0.7002202279
 H          1.1725644588       -4.3689371936        0.0674027513
 H         -1.7002683940       -2.9489935319        1.2304332371
 C         -1.2627666746       -3.9671113917       -0.6014062103
 C         -1.4146584398       -5.3477701353       -0.0378434451
 C         -2.5896025054       -4.6604750389       -0.6638230607
 H         -2.9443574987       -5.0090109479       -1.6220058688
 H         -3.3720974482       -4.2898778035       -0.0177240150
 H         -0.9648572053       -6.1735193267       -0.5681039093
 H         -1.4048223474       -5.4534539159        1.0364723278
 H         -0.7163694349       -3.8472914250       -1.5299208047
