  62
        -98.94419648
 C         -1.9815602590       -1.2797730903        0.0313232110
 C         -2.3246591596       -0.3098378613       -0.9414571197
 C         -3.7433042698        0.0765690779       -0.9873773199
 C         -4.6148934895       -0.4979404320       -0.1390588095
 C         -6.0735423597       -0.1585751328       -0.0444255697
 C         -6.3194906303        0.9495718678        0.9890015995
 C         -5.4016903710        2.1611694482        0.8251317886
 H         -5.6872763814        2.8909755286        1.5858559080
 H         -4.3727375708        1.8620991790        1.0387761588
 C         -5.4596109515        2.8184570971       -0.5609343119
 H         -6.3673560113        2.5089815262       -1.0802820116
 H         -5.5131613021        3.9016351672       -0.4326540027
 C         -4.2463531713        2.5350185572       -1.4487932717
 H         -3.3287234115        2.7557158782       -0.8970407319
 H         -4.2849559718        3.2155354365       -2.3037171423
 C         -4.1442755605        1.1085650869       -2.0036667307
 H         -5.0851645704        0.8324358159       -2.4839882404
 H         -3.3563314505        1.1041558168       -2.7625329407
 H         -7.3610308505        1.2671665771        0.9135240593
 H         -6.1622536000        0.5339749786        1.9869882698
 H         -6.4328591299        0.1557938762       -1.0223120299
 H         -6.6159744991       -1.0548225429        0.2612723010
 O         -4.2496295389       -1.4321641111        0.7751365812
 C         -2.9302845386       -1.8307518503        0.8965126315
 O         -2.7291846281       -2.6736755195        1.7932746221
 O         -1.5011777599        0.2087621886       -1.7403412501
 C         -0.5448144987       -1.7454379593        0.2096338213
 C          0.2642894606       -0.5956833384        0.7569934204
 C          0.2087548505       -0.3139188974        2.1190492502
 C          0.9156092799        0.7479586034        2.6524674494
 C          1.6872571394        1.5578110432        1.8364946188
 C          1.7395168695        1.2901983223        0.4758871290
 C          1.0425272501        0.2135052214       -0.0559892402
 H          1.0850053502        0.0253975407       -1.1169820201
 N          2.5318728890        2.1104567321       -0.3593997717
 S          4.1848525690        1.9894829133       -0.1141048816
 O          4.5057093688        2.5301922444        1.1819131480
 O          4.8025417386        2.6338904228       -1.2505105921
 C          4.5082552401        0.2358009735       -0.1446352803
 C          4.7954285904       -0.3654365173       -1.3537972599
 C          4.9676892712       -1.7394268772       -1.3951654689
 C          4.8362753817       -2.4861854464       -0.2343762083
 C          4.5431698114       -1.8674879957        0.9710716912
 C          4.3759084106       -0.4928826658        1.0203960802
 H          4.1520941203        0.0241711348        1.9389943698
 H          4.4403220518       -2.4503314551        1.8723645917
 H          4.9629942224       -3.5567884964       -0.2695470575
 H          5.1996107415       -2.2234469378       -2.3303955285
 H          4.8916057600        0.2530124221       -2.2319407304
 H          2.3277569790        1.9769582313       -1.3402777216
 H          2.2552936889        2.3837568039        2.2332333281
 H          0.8645649998        0.9497916141        3.7118169293
 H         -0.4047284591       -0.9383395973        2.7540722807
 H         -0.5790222382       -2.5293513288        0.9775709619
 C          0.0269140416       -2.3347230499       -1.0633088083
 C          1.3192831621       -3.0905175491       -0.9974993277
 C          0.0344818025       -3.8214521301       -1.2437071472
 H         -0.1525386373       -4.2206909809       -2.2292875568
 H         -0.3742272971       -4.4236332197       -0.4454720167
 H          2.0196476120       -2.9887366993       -1.8121513278
 H          1.7856605222       -3.1912134881       -0.0293272977
 H         -0.1654393988       -1.7313567807       -1.9414813887
