  62
        -98.94080114
 C          2.6032980198        1.3191012393        0.2243977472
 C          2.3841159015        0.2447152891       -0.6750947022
 C          3.4655281244       -0.7520029329       -0.7595687668
 C          4.5792328603       -0.5924192273       -0.0238789817
 C          5.7266340885       -1.5581561371        0.0236518926
 C          5.5371268056       -2.5877077981        1.1465565837
 C          4.1566189371       -3.2446920756        1.1574642274
 H          4.1497777553       -3.9733814100        1.9709301069
 H          3.4021322963       -2.4911847937        1.3958339708
 C          3.7744828748       -3.9424633429       -0.1553708154
 H          4.6688086367       -4.1245121901       -0.7525453010
 H          3.3372273006       -4.9152395653        0.0791485746
 C          2.7473027536       -3.1872299261       -1.0013187148
 H          2.3907798279       -3.8608921288       -1.7855192800
 H          1.8831578514       -2.9228588743       -0.3853080736
 C          3.2562576573       -1.9141407508       -1.6891215426
 H          4.1705617766       -2.1355555082       -2.2437589660
 H          2.4895202932       -1.5959107013       -2.4019708140
 H          5.6836839590       -2.0850845840        2.1053074276
 H          6.3060039626       -3.3555178649        1.0439383526
 H          5.8104730858       -2.0629659542       -0.9367236803
 H          6.6427196936       -0.9951707377        0.2099720671
 O          4.7632217178        0.4602462808        0.8124905815
 C          3.7773408448        1.4174434428        0.9788634754
 O          4.0613689681        2.2982968580        1.8144837238
 H         -0.5715743519        2.0027598700       -1.1850307301
 C         -0.7442295709        1.6003446209       -0.1990837197
 C          0.2331577788        1.7297869644        0.7736838317
 C          0.0069545090        1.1708775309        2.0277261672
 C         -1.1730938247        0.5044577473        2.2997436152
 C         -2.1441477127        0.3690100204        1.3228369863
 C         -1.9175903551        0.9045528331        0.0624337197
 N         -2.8885375632        0.7583466878       -0.9417193128
 S         -3.6420694062       -0.7286356233       -1.1308979553
 O         -2.8045309909       -1.8281319856       -0.7126118525
 O         -4.0932090545       -0.7481565757       -2.5057538540
 C         -5.0655969914       -0.6084565909       -0.0648818695
 C         -5.8862130604        0.4952210656       -0.1924356648
 C         -7.0042725402        0.5958124537        0.6198259684
 C         -7.2841598893       -0.4046804238        1.5387541578
 C         -6.4529846203       -1.5083259587        1.6524445355
 C         -5.3321900497       -1.6141198871        0.8433793394
 H         -4.6544757407       -2.4512749340        0.9008453713
 H         -6.6718193237       -2.2857517397        2.3668154708
 H         -8.1551346565       -0.3240587903        2.1698019277
 H         -7.6528588458        1.4527588348        0.5344593256
 H         -5.6354125665        1.2489941203       -0.9198095680
 H         -2.5964505355        1.1247264146       -1.8364569652
 H         -3.0582640248       -0.1660904157        1.5218744311
 H         -1.3372870314        0.0794062233        3.2784041483
 H          0.7755031164        1.2562933504        2.7841088787
 C          1.5575199222        2.3918538418        0.4891324584
 H          1.8935446841        2.8893599812        1.4126777720
 C          1.4661868469        3.4760250649       -0.5742577015
 C          2.7131719703        4.0371766746       -1.1884573364
 C          1.7596308572        3.2394321282       -2.0237840291
 H          1.1606381926        3.7632532083       -2.7550310925
 H          2.0463570371        2.2459016382       -2.3294431348
 H          2.7760745994        5.1026320845       -1.3500275590
 H          3.6511729689        3.5804863619       -0.9071732921
 H          0.6764959261        4.1871918570       -0.3505296483
 O          1.3545754819        0.1078085584       -1.3860062887
