  62
        -98.92933254
 C         -2.5963998620       -0.6961433565        0.1755806868
 C         -2.9962265334        0.5693654212        0.6700834112
 C         -4.2387692330        1.1518619892        0.1295679190
 C         -4.9129250171        0.4659520687       -0.8117783012
 C         -6.2135040144        0.8284316870       -1.4776269800
 C         -7.4300423850        0.5860362991       -0.5688239259
 C         -7.2523302759        1.0373997697        0.8787235691
 H         -8.1287834084        0.7034942398        1.4405309129
 H         -6.3832055720        0.5345164840        1.3069588388
 C         -7.1163489345        2.5448463501        1.0793317975
 H         -7.0738962445        2.7264546241        2.1563911671
 H         -8.0116418306        3.0387207755        0.6948364791
 C         -5.8900638530        3.1978058315        0.4386620062
 H         -5.8057326268        4.2067884502        0.8530219267
 H         -6.0249290827        3.3151450258       -0.6331390538
 C         -4.5663024161        2.4974992965        0.7305753856
 H         -3.7470281090        3.1621440682        0.4304842173
 H         -4.4556753115        2.3770542277        1.8143302303
 H         -8.2940058239        1.0890984723       -1.0061847993
 H         -7.6340563001       -0.4874638535       -0.5586748690
 H         -6.1825791004        1.8585840795       -1.8198104772
 H         -6.3043604692        0.1879610448       -2.3576561076
 O         -4.4851192175       -0.7426416609       -1.2710507838
 C         -3.3343915294       -1.3591396825       -0.8056720518
 O         -3.1040560776       -2.4572882656       -1.3428687945
 O         -2.3433073978        1.1923639602        1.5521201274
 C         -1.3362762554       -1.2927099513        0.7742621121
 C         -0.1113090615       -0.9567112243       -0.0377429436
 C         -0.0765867298       -1.1427614351       -1.4158536116
 C          1.0723575807       -0.8581392701       -2.1311712945
 C          2.2050112715       -0.3818177881       -1.4940198037
 C          2.1828874449       -0.1912913838       -0.1196448032
 C          1.0256535012       -0.4768738633        0.5956501564
 H          1.0072615839       -0.3135850054        1.6652957621
 N          3.3224395086        0.3055130279        0.5414632398
 S          4.7925538172       -0.5144957081        0.4442035671
 O          4.7488785179       -1.4795844031       -0.6249489243
 O          5.1064040298       -1.0221861776        1.7632851056
 C          5.9374632157        0.7894652825        0.0346817473
 C          5.7231526255        1.5209570062       -1.1169903716
 C          6.6158946232        2.5270301860       -1.4491186109
 C          7.7043182480        2.7841288248       -0.6286197465
 C          7.9050941754        2.0433902854        0.5256164805
 C          7.0141835044        1.0362556830        0.8631554237
 H          7.1309413914        0.4365347714        1.7511893675
 H          8.7509373352        2.2453454045        1.1629627177
 H          8.3985342921        3.5669676988       -0.8905012451
 H          6.4598931311        3.1068054583       -2.3447306827
 H          4.8656763573        1.2967698371       -1.7297753284
 H          3.1419347590        0.5279449380        1.5106211886
 H          3.1058033638       -0.1838746189       -2.0505552151
 H          1.0864813136       -1.0107987283       -3.1999632107
 H         -0.9536798985       -1.5242693123       -1.9164531282
 H         -1.2292224967       -0.7894684763        1.7488768103
 C         -1.4578381160       -2.7852176681        1.0524233797
 C         -0.7514428437       -3.8407016003        0.2620720522
 C         -0.3109499205       -3.5375423655        1.6608843628
 H         -0.5175248386       -4.2565156278        2.4391352600
 H          0.6246169642       -3.0114218286        1.7834577857
 H         -1.2836777225       -4.7590737897        0.0676634198
 H         -0.1136418244       -3.5311667436       -0.5507688870
 H         -2.4492561447       -3.0443015215        1.4110717446
