  62
        -98.93449322
 C          2.3006552726       -0.2711821750       -0.1908810936
 C          3.4864265869       -0.6419134110       -0.8633344953
 C          4.7132657389        0.0999818673       -0.5134739030
 C          4.6325170350        1.0865584464        0.3989965262
 C          5.7445744059        1.9430817658        0.9433821983
 C          6.6188282131        1.1962588202        1.9640358937
 C          6.9986010516       -0.2275787115        1.5656368224
 H          7.5178586009       -0.6819711792        2.4136209428
 H          6.0890309105       -0.8067907218        1.3960198121
 C          7.9091738972       -0.3419097684        0.3453844395
 H          8.1654515720       -1.3981999983        0.2302293699
 H          8.8350053730        0.2050606669        0.5370913068
 C          7.3198541064        0.1501263967       -0.9781213788
 H          7.9712074794       -0.2125878579       -1.7786910647
 H          7.3361989394        1.2350793375       -1.0353775751
 C          5.9205647865       -0.3730661933       -1.2873054853
 H          5.6954061992       -0.1643802359       -2.3402996589
 H          5.9201148140       -1.4659770185       -1.2056119192
 H          6.0654259651        1.1412206284        2.9046707188
 H          7.5229400380        1.7820146997        2.1380749338
 H          5.2706116892        2.7894319447        1.4452347019
 H          6.3469797664        2.3352846942        0.1295722484
 O          3.4598290297        1.4201811508        1.0115750607
 C          2.2738985591        0.7626705499        0.7437027419
 O          1.2928772980        1.1842876287        1.3856541874
 O          3.5272962558       -1.5613122827       -1.7261183821
 C          1.0154121308       -1.0163402972       -0.4983411525
 C         -0.0378201172       -0.0595739343       -0.9987951041
 C          0.2701627561        0.7756379628       -2.0706352002
 C         -0.6646394584        1.6626539021       -2.5664399727
 C         -1.9322380824        1.7275892375       -2.0142668163
 C         -2.2493413475        0.9008154359       -0.9438169000
 C         -1.3049869032        0.0135098523       -0.4445521123
 H         -1.5803548721       -0.6149137941        0.3853592909
 N         -3.5171371764        0.9624792539       -0.3439066868
 S         -4.1944601093       -0.4546729255        0.2721688126
 O         -3.6771972479       -0.6909385853        1.5963477615
 O         -4.0368859500       -1.5330552417       -0.6778302534
 C         -5.9080768269        0.0295527631        0.3764900922
 C         -6.7803147880       -0.3349660441       -0.6318242247
 C         -8.1037809099        0.0693315363       -0.5522350090
 C         -8.5296104902        0.8295349001        0.5265720470
 C         -7.6427155141        1.1870234990        1.5314774365
 C         -6.3184865902        0.7851327753        1.4587812423
 H         -5.5958794439        1.0304138206        2.2197423363
 H         -7.9779718959        1.7752810040        2.3704036833
 H         -9.5599238919        1.1427772045        0.5866178097
 H         -8.7964028830       -0.2100566397       -1.3297360711
 H         -6.4061991185       -0.9336908320       -1.4466720432
 H         -4.1849553696        1.4948626816       -0.8844591262
 H         -2.6646004687        2.4186957925       -2.4030416069
 H         -0.4089367610        2.3047177422       -3.3960601588
 H          1.2583869828        0.7187011044       -2.5070999486
 H          1.2652250376       -1.7064093488       -1.3187014147
 C          0.5753024339       -1.8288112636        0.7007078694
 C         -0.2823526887       -3.0431609530        0.5127616572
 C          1.1534093613       -3.1942318736        0.9143198699
 H          1.3774778171       -3.5072331941        1.9230205227
 H          1.8547186963       -3.5562268429        0.1766781525
 H         -1.0523119471       -3.2460859636        1.2425125320
 H         -0.5620488150       -3.3050255264       -0.4967786782
 H          0.4018746332       -1.2161505136        1.5792926722
