  62
        -98.93515017
 C         -1.7005318760       -0.0750892028        0.3790463443
 C         -2.8276881917       -0.7615201747        0.8978769922
 C         -4.1392848593       -0.1179646731        0.7170217783
 C         -4.2031584756        1.0846550635        0.1215556948
 C         -5.4163276481        1.9428625357       -0.1374639108
 C         -6.6877544171        1.2418817436       -0.6343697634
 C         -6.4461267492        0.0272627277       -1.5425704149
 H         -7.0407162358        0.1396145315       -2.4511528775
 H         -5.3977673702       -0.0122168526       -1.8437364562
 C         -6.8393281872       -1.2978672251       -0.8850789529
 H         -6.9953119275       -2.0449316639       -1.6671255210
 H         -7.7918166539       -1.1626062872       -0.3680600129
 C         -5.8165562181       -1.8737758152        0.0935626879
 H         -4.9385137872       -2.2272661982       -0.4540511394
 H         -6.2652689844       -2.7465657034        0.5738316638
 C         -5.3275595892       -0.9079713924        1.1851658782
 H         -6.1313685117       -0.2614036914        1.5283585753
 H         -4.9762999869       -1.5067160689        2.0299347685
 H         -7.2911503530        0.9332698403        0.2181257701
 H         -7.2688642379        1.9909257382       -1.1750852074
 H         -5.6458704453        2.4921409237        0.7803733432
 H         -5.0903203795        2.6779794952       -0.8774525613
 O         -3.0891182704        1.7344781873       -0.3175469702
 C         -1.8173334639        1.1846609599       -0.2079388717
 O         -0.9173705891        1.9168205058       -0.6587966489
 O         -2.7408121973       -1.8639529897        1.5003076466
 C         -0.3455957192       -0.7413193204        0.5369270701
 C          0.6768943872        0.2409959688        1.0458502807
 C          0.5515940455        0.7294181836        2.3441644591
 C          1.4604400400        1.6392157298        2.8474587660
 C          2.5272285680        2.0649138924        2.0749762014
 C          2.6595069685        1.5856029526        0.7778387633
 C          1.7376824536        0.6796012005        0.2703828430
 H          1.8356392683        0.3619461106       -0.7534002404
 N          3.7277896020        1.9966133198       -0.0294600198
 S          4.4021732430        0.9508781253       -1.1375174609
 O          5.7530921195        1.4414973057       -1.3156880049
 O          3.6033815181        0.8782648686       -2.3346401289
 C          4.4378922527       -0.6424647169       -0.3323346319
 C          5.0300004495       -0.7433800903        0.9111398360
 C          5.0559153087       -1.9756578075        1.5434629757
 C          4.4959111229       -3.0825280062        0.9240574195
 C          3.9136858826       -2.9675724071       -0.3284632939
 C          3.8821910837       -1.7361228520       -0.9636667851
 H          3.4330265570       -1.5999805583       -1.9346612981
 H          3.4806677390       -3.8297463433       -0.8106278326
 H          4.5138707821       -4.0406492048        1.4189734754
 H          5.5102013135       -2.0693118312        2.5165818563
 H          5.4641698109        0.1325734589        1.3644855689
 H          4.4137741751        2.5839941710        0.4195675874
 H          3.2407709010        2.7742501698        2.4657125493
 H          1.3447404235        2.0157688290        3.8525876240
 H         -0.2797438506        0.3941996851        2.9492152807
 H         -0.5075311031       -1.4985127281        1.3223155963
 C          0.1270762932       -1.4942125431       -0.6975012612
 C         -0.8476899166       -2.1432345397       -1.6322478502
 C         -0.0512312934       -0.9579162063       -2.0848444833
 H          0.7441415148       -1.1071726658       -2.8012413781
 H         -0.5519242061       -0.0083967194       -2.1953083121
 H         -0.6053858923       -3.1141013628       -2.0371487067
 H         -1.9003629091       -2.0024911784       -1.4341474151
 H          1.0459434191       -2.0398625697       -0.5040737483
