  62
        -98.94809261
 C         -1.2275990892       -1.4301851196        0.4955282597
 C         -2.2362682693       -1.2481038295       -0.4801383101
 C         -3.3685749091       -0.4011630593       -0.0790163800
 C         -3.3707365289        0.1656327607        1.1412412100
 C         -4.4293718687        1.0996586208        1.6507329401
 C         -4.0758975285        2.5615414208        1.3434034901
 C         -3.6719426687        2.8103037807       -0.1100913599
 H         -3.4817746685        3.8811236807       -0.2139805799
 H         -2.7238776588        2.3032065806       -0.3085924000
 C         -4.7170250189        2.3720351709       -1.1458811698
 H         -4.8157526388        3.1597913809       -1.8957067698
 H         -5.6892080488        2.2585957110       -0.6645042097
 C         -4.3681916891        1.0846858509       -1.8948865799
 H         -5.0486410192        0.9912525310       -2.7455306098
 H         -3.3527117892        1.1575280307       -2.2933000500
 C         -4.4735041092       -0.2098846991       -1.0793535699
 H         -5.4491116292       -0.2598298590       -0.5916327098
 H         -4.3925167994       -1.0481573291       -1.7775469599
 H         -3.2396498484        2.8590486406        1.9809435700
 H         -4.9357503684        3.1851794109        1.5958652602
 H         -5.3835637588        0.8423426910        1.1948551502
 H         -4.5073661486        0.9749688308        2.7322109901
 O         -2.3724295789       -0.0141667395        2.0437075999
 C         -1.2701353090       -0.7939280597        1.7358033898
 O         -0.4073818889       -0.8469083798        2.6372001097
 H          0.4823250010        0.3306403701       -0.1016264804
 C          0.9545169508       -0.2346340399       -0.8904730005
 C          0.7827918806       -1.6108665099       -0.9431230705
 C          1.3738904404       -2.3111450000       -1.9868274206
 C          2.1058377504       -1.6390692301       -2.9511573606
 C          2.2933420906       -0.2702824301       -2.8805021106
 C          1.7115729808        0.4375976100       -1.8352060206
 N          1.8852542310        1.8241205099       -1.6965471406
 S          2.0893920213        2.4415538099       -0.1522635906
 O          0.8212575914        2.5253143001        0.5274997096
 O          2.7739679214        3.7006332498       -0.3595543806
 C          3.1872658112        1.2833726397        0.6470721093
 C          2.7381053912        0.4353663698        1.6382385893
 C          3.6214614511       -0.4896898504        2.1746145092
 C          4.9275174210       -0.5519384406        1.7162192291
 C          5.3664696411        0.3150661594        0.7266714290
 C          4.4892999511        1.2389197195        0.1847957391
 H          4.7944369311        1.9367031795       -0.5780135009
 H          6.3844876110        0.2699436092        0.3750935189
 H          5.6060385010       -1.2784570607        2.1346971390
 H          3.2716665011       -1.1587563103        2.9449107892
 H          1.7156624912        0.4913277499        1.9798141394
 H          2.5260166610        2.2410582599       -2.3558785306
 H          2.8752459406        0.2479987898       -3.6268960507
 H          2.5492138902       -2.1925614301       -3.7647436607
 H          1.2550418402       -3.3802116400       -2.0500222206
 C         -0.0008231694       -2.2625415098        0.1715146496
 H          0.6294137807       -2.2340028199        1.0735454395
 C         -0.3802082096       -3.7008249798       -0.1103299104
 C          0.5787410302       -4.8075384699        0.2075572495
 C         -0.6477020196       -4.6148933597        1.0463801396
 H         -1.4513734198       -5.3308979396        0.9630229097
 H         -0.5321569995       -4.2040130698        2.0391445496
 H          0.6162960700       -5.6620566399       -0.4510718705
 H          1.5316223203       -4.5363111900        0.6362174994
 H         -1.0120810297       -3.8015065996       -0.9847133303
 O         -2.1973904695       -1.7645261195       -1.6275617402
