  62
        -98.94327577
 C          1.3194412773        0.9898984201       -0.0043530115
 C          1.8188813699       -0.1006863725        0.7475095614
 C          2.7802367824       -0.9705756377        0.0564045430
 C          3.1006606284       -0.7093719751       -1.2241558319
 C          4.0990621373       -1.4861198358       -2.0319272172
 C          5.5045482012       -0.8812136604       -1.9095074018
 C          5.9364358242       -0.6102089074       -0.4683457906
 H          5.3008912924        0.1722507176       -0.0474755201
 H          6.9533871340       -0.2134880421       -0.5033204309
 C          5.8988788770       -1.8412820574        0.4480189992
 H          6.8170384644       -1.8654851714        1.0387384362
 H          5.8780152251       -2.7505595053       -0.1539349193
 C          4.7321136470       -1.8605392068        1.4372016076
 H          4.6953455198       -0.9109482138        1.9768325421
 H          4.9232108777       -2.6473572808        2.1717335777
 C          3.3477113062       -2.1258548763        0.8321656451
 H          2.6527467002       -2.2996889824        1.6588183098
 H          3.3823368866       -3.0264411469        0.2156095653
 H          5.5233020814        0.0643268484       -2.4565258816
 H          6.2151613893       -1.5611257150       -2.3831290571
 H          4.1073123233       -2.5205961260       -1.6935931127
 H          3.7913498706       -1.4585315790       -3.0787793490
 O          2.5759666590        0.3295407404       -1.9240520612
 C          1.6782484330        1.2101366942       -1.3339359133
 O          1.2773475402        2.1169718228       -2.0873995599
 H         -0.7972043273       -0.1302103425       -0.6571970857
 C         -1.4442194287        0.7388533153       -0.6564570139
 C         -1.0078675129        1.9095788946       -0.0511647871
 C         -1.8625958250        3.0061641031       -0.0560340578
 C         -3.1107840287        2.9287946008       -0.6499993824
 C         -3.5393031435        1.7581803210       -1.2503883750
 C         -2.6908610701        0.6614486741       -1.2574575556
 N         -3.1418424507       -0.5574718256       -1.8284265035
 S         -4.1172006554       -1.4335054943       -0.7789486512
 O         -4.2980672670       -2.7320186277       -1.3872054305
 O         -5.3112509614       -0.6695222417       -0.5263839822
 C         -3.1385599620       -1.5687263472        0.7050356730
 C         -3.1860266681       -0.5472363335        1.6324960289
 C         -2.3204368080       -0.5860303199        2.7136961777
 C         -1.4231000331       -1.6341278743        2.8458902083
 C         -1.3926394921       -2.6550577103        1.9086792803
 C         -2.2513730413       -2.6201246253        0.8222056478
 H         -2.2537908983       -3.3906507533        0.0670365297
 H         -0.6907701059       -3.4668672905        2.0142506829
 H         -0.7325505925       -1.6485562439        3.6736886014
 H         -2.3381050171        0.2083973157        3.4423805001
 H         -3.8932126126        0.2542219109        1.4917102510
 H         -2.3797678470       -1.1532757989       -2.1227335976
 H         -4.5151593068        1.6711528340       -1.6989984470
 H         -3.7600267288        3.7908957104       -0.6427289519
 H         -1.5497849354        3.9256378031        0.4114720937
 C          0.3275747954        1.9282023532        0.6517985338
 H          0.1724104378        1.5207027704        1.6632504154
 C          0.9125749164        3.3214683961        0.7741653083
 C          0.6077157012        4.1759808714        1.9673240453
 C          1.9686721244        3.5704639949        1.8080689406
 H          2.7978563915        4.2140312808        1.5551158810
 H          2.2383246721        2.7429620515        2.4481347520
 H         -0.0394745014        3.7651765041        2.7273580236
 H          0.5034378097        5.2411461478        1.8249188788
 H          1.0310605901        3.8068284900       -0.1881110918
 O          1.4720877891       -0.3372739405        1.9343789046
