  62
        -98.93835707
 C         -2.3144608920       -1.1502131379        0.1917961699
 C         -2.3581276960        0.0846177035       -0.4957998425
 C         -3.3387502422        1.0728244611       -0.0060163782
 C         -4.0982586431        0.7733004056        1.0614114273
 C         -5.1789963686        1.6115728791        1.6861794830
 C         -6.5553066666        1.2483421217        1.1031801600
 C         -6.9362277630        2.0051123527       -0.1685455470
 H         -7.8618202420        1.5635046322       -0.5447037888
 H         -7.1486344096        3.0461729940        0.0834563307
 C         -5.8892011327        1.9767487304       -1.2849630311
 H         -6.3950760675        2.2069920964       -2.2246163079
 H         -5.4769660314        0.9703849185       -1.3777676765
 C         -4.7528603073        2.9882560171       -1.0726028161
 H         -4.6286329251        3.5884557552       -1.9764875453
 H         -5.0345268037        3.6805805193       -0.2794882600
 C         -3.3801453998        2.3750483626       -0.7587285911
 H         -2.8510411542        2.1706680187       -1.6951383524
 H         -2.7740877207        3.1095301628       -0.2167455075
 H         -6.5625680846        0.1729211868        0.9083802177
 H         -7.3188813278        1.4489457827        1.8573098598
 H         -4.9655839595        2.6693373706        1.5646342124
 H         -5.1788551802        1.3730349020        2.7518157270
 O         -4.0062796588       -0.4193878508        1.7111269036
 C         -3.1249862274       -1.3998308380        1.3026136637
 O         -3.1544557375       -2.4372601636        1.9937833756
 O         -1.6301119525        0.3644683347       -1.4860609423
 C         -1.3494445631       -2.2595791426       -0.2005424778
 C          0.0454560104       -1.8326489296        0.1875449716
 C          0.5107854139       -2.1014299696        1.4715799909
 C          1.7593529253       -1.6658261364        1.8743097585
 C          2.5658755553       -0.9449291907        1.0104338914
 C          2.1021970510       -0.6550244418       -0.2651477536
 C          0.8572498577       -1.1136590928       -0.6757825387
 H          0.5015588728       -0.8671057781       -1.6635178619
 N          2.9052821206        0.0883138995       -1.1471476146
 S          3.6397867882        1.4822177742       -0.5697801863
 O          2.8841722055        2.0860729493        0.5036909616
 O          3.8667594427        2.3035619878       -1.7391215706
 C          5.2117282228        0.9037677321        0.0381189092
 C          5.9937342362        0.1367762305       -0.8033658126
 C          7.2240115354       -0.3114848071       -0.3500897611
 C          7.6513200671        0.0154906761        0.9282992269
 C          6.8565339389        0.7895142838        1.7596761087
 C          5.6240115923        1.2401060382        1.3125977390
 H          4.9693544147        1.8385546127        1.9262848998
 H          7.1899815913        1.0432248289        2.7531518644
 H          8.6091397128       -0.3350925281        1.2789493252
 H          7.8445623729       -0.9140606515       -0.9936326100
 H          5.6263798056       -0.0935043606       -1.7893726336
 H          2.4604943268        0.2648393856       -2.0369114126
 H          3.5353125064       -0.5920866094        1.3222451980
 H          2.1085831645       -1.8857358467        2.8717550210
 H         -0.1284734664       -2.6427500270        2.1551532684
 H         -1.6223023481       -3.1225433470        0.4209790390
 C         -1.4833022432       -2.6522094791       -1.6572428889
 C         -0.8771219002       -3.9410440824       -2.1221961695
 C         -2.3662065411       -3.8053887791       -2.0240970518
 H         -2.9410932588       -3.7433367668       -2.9360063777
 H         -2.8753687434       -4.3201486122       -1.2222560981
 H         -0.4274272452       -3.9759287305       -3.1025992323
 H         -0.3743091766       -4.5480233206       -1.3846369192
 H         -1.4677904069       -1.8099992534       -2.3368533284
