  62
        -98.93282911
 C         -2.6629925493       -1.2530556043       -0.0307684125
 C         -2.7862584128       -0.1150689301       -0.8617056135
 C         -4.1325501685        0.4753704897       -0.9573354555
 C         -5.1501247496       -0.0844830760       -0.2809175736
 C         -6.6009343422        0.3272841584       -0.2632119206
 C         -6.9086220550        1.8269887638       -0.1447428478
 C         -5.8898118050        2.6392642321        0.6681473489
 H         -6.4232776941        3.2325025109        1.4132851541
 H         -5.2182499497        1.9685926825        1.2070866457
 C         -5.0670324109        3.5996791967       -0.1943034899
 H         -5.7340816596        4.0851900741       -0.9100775238
 H         -4.6526666623        4.3806369619        0.4478220154
 C         -3.8977687488        2.9683619892       -0.9494220710
 H         -3.4762799372        3.7280611660       -1.6120984789
 H         -3.1092441341        2.6861828935       -0.2459695000
 C         -4.2435119362        1.7241182225       -1.7835924302
 H         -5.2240543992        1.8175722575       -2.2440027194
 H         -3.4929510839        1.6311289123       -2.5730974204
 H         -6.9929477526        2.2611161780       -1.1400430145
 H         -7.8930260350        1.9110209564        0.3187296683
 H         -7.0771793390       -0.0652440125       -1.1662363018
 H         -7.0358816724       -0.2041190197        0.5866076049
 O         -4.9854315771       -1.1894408198        0.5015562761
 C         -3.7490341881       -1.7912823050        0.6559055614
 O         -3.7463828660       -2.7786958915        1.4196390636
 O         -1.8237695085        0.3812605139       -1.5021995685
 C         -1.3093799827       -1.9160179127        0.1453286091
 C         -0.3133154634       -0.9139154200        0.6780582412
 C         -0.6595416050       -0.1524673122        1.7912606017
 C          0.2199292157        0.7742498669        2.3161312627
 C          1.4670123416        0.9638472465        1.7460687027
 C          1.8296185261        0.1993879785        0.6465373871
 C          0.9438637338       -0.7363115942        0.1238641579
 H          1.2401818182       -1.3210411069       -0.7334433874
 N          3.0932600138        0.3889034513        0.0464491886
 S          4.4570477767        0.2184800232        1.0303605998
 O          4.5316844364       -1.1319295359        1.5477089665
 O          4.4591606901        1.2714976469        2.0123348195
 C          5.7533165447        0.4956187800       -0.1600885804
 C          6.3960341735       -0.5840190767       -0.7347149696
 C          7.3854280622       -0.3508776611       -1.6771129429
 C          7.7107289921        0.9503627160       -2.0288077204
 C          7.0560931114        2.0239000345       -1.4431533480
 C          6.0669228083        1.7977247944       -0.4996143235
 H          5.5378823046        2.6001739179       -0.0128788801
 H          7.3133744943        3.0341557312       -1.7180091926
 H          8.4813180335        1.1290619472       -2.7620756328
 H          7.8979384003       -1.1830638314       -2.1323919812
 H          6.1181304008       -1.5786719703       -0.4246366784
 H          3.2040729146       -0.2086148751       -0.7632612800
 H          2.1624428516        1.6810544862        2.1494559700
 H         -0.0677720535        1.3601448057        3.1766406210
 H         -1.6346518495       -0.2965262166        2.2382862879
 H         -1.4480490759       -2.6941851993        0.9105653612
 C         -0.8825136092       -2.5768640438       -1.1488567055
 C          0.0248306469       -3.7694168149       -1.1257064762
 C         -1.4224835722       -3.9349511312       -1.4773554244
 H         -1.6837631434       -4.1522604878       -2.5020945577
 H         -2.0787493213       -4.3949183789       -0.7527573318
 H          0.7559719297       -3.8785120455       -1.9128324968
 H          0.3573697000       -4.1266385999       -0.1624848884
 H         -0.7815292891       -1.8683769386       -1.9631655321
