  62
        -98.93464503
 C          1.8900248553        0.6476953480       -0.0520768951
 C          2.6557411888        0.1715571782        1.0409276235
 C          3.7427349145       -0.7712608845        0.7289190015
 C          3.9131590171       -1.1794687936       -0.5398101740
 C          4.9205272941       -2.1612030963       -1.0842852309
 C          6.3590728274       -2.0659398765       -0.5583276353
 C          6.8322869203       -0.6457765055       -0.2152512627
 H          7.7877485152       -0.4613312957       -0.7097896411
 H          6.1212940777        0.0884328800       -0.5981344047
 C          7.0318651372       -0.4291589841        1.2867738664
 H          7.6947157956        0.4271114311        1.4329298268
 H          7.5339540458       -1.3053580850        1.7027950263
 C          5.7581062296       -0.1565758958        2.0860061210
 H          5.3696120629        0.8348211740        1.8367661471
 H          6.0236601418       -0.1376702966        3.1457042717
 C          4.6187557052       -1.1685361106        1.8821019837
 H          5.0043596406       -2.1785938617        1.7664978460
 H          3.9803669260       -1.1387713401        2.7694622848
 H          6.4685411379       -2.6988018117        0.3213094218
 H          7.0045050200       -2.4883020611       -1.3303623227
 H          4.5404491477       -3.1716885467       -0.9066835176
 H          4.9146110630       -2.0027875032       -2.1655063001
 O          3.1087717519       -0.7503852324       -1.5520210642
 C          2.0875298426        0.1689902615       -1.3474539832
 O          1.4543774276        0.4530134497       -2.3799369626
 H         -0.4971754822       -0.6359606976        0.6615007458
 C         -1.0218676625       -0.0332985344       -0.0701296258
 C         -0.4980213661        1.2047547528       -0.4243693511
 C         -1.1796681077        1.9679713303       -1.3619853942
 C         -2.3387166255        1.4871391492       -1.9468501646
 C         -2.8454962867        0.2469101492       -1.6075750924
 C         -2.1780341498       -0.5197906817       -0.6599275162
 N         -2.6844205861       -1.7786029624       -0.3012311856
 S         -4.3346613321       -1.9703989775       -0.1260084391
 O         -4.4870375527       -3.0667728842        0.8051636793
 O         -4.9462734375       -2.1557960854       -1.4185179574
 C         -4.9178156464       -0.4492014416        0.6024098658
 C         -4.3720823602       -0.0503958234        1.8065543091
 C         -4.7979349752        1.1394086586        2.3739784107
 C         -5.7586597901        1.9058056322        1.7317292528
 C         -6.3015865907        1.4886155421        0.5266713934
 C         -5.8773639167        0.3004940759       -0.0467550571
 H         -6.2696532445       -0.0597975946       -0.9838722051
 H         -7.0501409398        2.0849808723        0.0305279391
 H         -6.0857014951        2.8329829743        2.1750790330
 H         -4.3767966897        1.4649236355        3.3116566002
 H         -3.6303611454       -0.6703875255        2.2843155937
 H         -2.1705744921       -2.2432286383        0.4317268961
 H         -3.7316750456       -0.1494529655       -2.0759721684
 H         -2.8505933852        2.0840376371       -2.6860767442
 H         -0.7881187816        2.9265517086       -1.6590617642
 C          0.7808365924        1.6409411202        0.2447890852
 H          0.6343143560        1.5620904086        1.3353344757
 C          1.1486785487        3.0903076416       -0.0343855018
 C          2.5716197036        3.5529674776        0.0515146295
 C          1.8757494157        3.5127965106       -1.2743128847
 H          1.6003504314        4.4503516767       -1.7348874962
 H          2.1504002039        2.7449933374       -1.9802888446
 H          3.3286128438        2.8089492709        0.2537818272
 H          2.7741300684        4.5137217580        0.5005539453
 H          0.3994706183        3.7771549187        0.3469264175
 O          2.4311937177        0.5090528670        2.2341447182
