  62
        -98.93821185
 C         -1.2587383568       -1.4215081612        0.6574879811
 C         -2.1507893094       -1.2085578960       -0.4197372044
 C         -3.1573218418       -0.1434889537       -0.2327040980
 C         -3.1223799641        0.6138028307        0.8766004184
 C         -4.0776088613        1.6900860431        1.3338344222
 C         -4.7056796681        2.6114203596        0.2836705383
 C         -3.7554802421        3.0482814036       -0.8398488975
 H         -2.7318559563        2.7732492086       -0.5869653370
 H         -3.7876924505        4.1353961421       -0.9320622372
 C         -4.1152443480        2.4515617579       -2.2014542699
 H         -3.6421067417        3.0516837950       -2.9825999955
 H         -5.1957338046        2.5225609291       -2.3443073733
 C         -3.6783965353        1.0033102128       -2.4155659120
 H         -2.5875848839        0.9457395219       -2.4683028652
 H         -4.0583256285        0.6796691619       -3.3875992931
 C         -4.1542747822        0.0049420420       -1.3472661374
 H         -4.2221083590       -0.9802069928       -1.8168215093
 H         -5.1388272739        0.2732117950       -0.9719761176
 H         -5.0659424890        3.4918147807        0.8192940101
 H         -5.5811670408        2.1317325502       -0.1506697040
 H         -4.8779745939        1.1999713819        1.8973887942
 H         -3.5110447741        2.2889530358        2.0517401382
 O         -2.1606625317        0.4517332112        1.8312651849
 C         -1.2267239517       -0.5612796844        1.7569601396
 O         -0.4292793760       -0.5977826478        2.7159718182
 H          1.8971946150       -1.2091150973        1.4481668494
 C          1.9629608623       -1.4621178418        0.3975940503
 C          0.9296242424       -2.1840647860       -0.1873027260
 C          1.0037859992       -2.4721775682       -1.5445059407
 C          2.0928825603       -2.0541724634       -2.2904123031
 C          3.1252380282       -1.3434886172       -1.7033335161
 C          3.0520504438       -1.0409196372       -0.3501139494
 N          4.0851176840       -0.2763262544        0.2443960120
 S          4.0936625322        1.3391592758       -0.2005372234
 O          4.3146454524        1.4234130351       -1.6208884237
 O          5.0767239295        1.9792019092        0.6423430659
 C          2.4602613820        1.9281906567        0.2055942763
 C          2.2659259484        2.6050196062        1.3927193599
 C          0.9841406946        3.0004962060        1.7372686161
 C         -0.0789042400        2.6954135321        0.9022666451
 C          0.1309315174        2.0007992464       -0.2783537098
 C          1.4118812720        1.6152365905       -0.6364793068
 H          1.6064635224        1.0834113008       -1.5538382669
 H         -0.6983128845        1.7429025150       -0.9197821952
 H         -1.0775659595        2.9955766859        1.1784635140
 H          0.8138392369        3.5347976305        2.6580626703
 H          3.1201672980        2.8166858773        2.0159262221
 H          4.0766706348       -0.3291336752        1.2543414628
 H          3.9700635294       -0.9952342539       -2.2747548733
 H          2.1380291208       -2.2838149470       -3.3442692907
 H          0.1937181515       -3.0017002946       -2.0187153484
 C         -0.2519651843       -2.5628574219        0.6702421675
 H          0.1031260996       -2.6274988665        1.7078083207
 C         -0.8691231710       -3.8929581308        0.2922051043
 C         -0.1186561230       -5.1523364294        0.6006328234
 C         -1.3541246122       -4.8069848428        1.3752351570
 H         -2.2512215144       -5.3818361944        1.2005752765
 H         -1.2400786355       -4.4785956441        2.3983283397
 H          0.8350600926       -5.0558256705        1.0976762035
 H         -0.1648428254       -5.9667795121       -0.1057643932
 H         -1.4490971450       -3.8606794316       -0.6201988740
 O         -2.1485262154       -1.8840355209       -1.4805485222
