  62
        -98.94214572
 C         -0.4948322297       -1.9040006741        0.5136364306
 C         -1.4258924870       -1.7490967694       -0.5425212479
 C         -2.6486992290       -0.9999429553       -0.2175887797
 C         -2.8289824635       -0.5417452413        1.0339418388
 C         -3.9546167659        0.3451753038        1.4836114019
 C         -3.6703780879        1.7992174570        1.0522606183
 C         -4.6550225963        2.3562501088        0.0238721016
 H         -5.5962601329        2.5977364142        0.5234176370
 H         -4.2298706334        3.2885544765       -0.3544586448
 C         -4.9725668928        1.4379203689       -1.1603235270
 H         -5.7156761718        0.6968092661       -0.8604626035
 H         -5.4420413217        2.0578883228       -1.9272099965
 C         -3.7736134598        0.7088920318       -1.7817563624
 H         -2.8453597817        1.2447452232       -1.5743777368
 H         -3.9016092557        0.7044318558       -2.8665134744
 C         -3.6220785352       -0.7587890546       -1.3361543688
 H         -4.6014035059       -1.1672019590       -1.0710476310
 H         -3.2357399172       -1.3425254557       -2.1770043271
 H         -3.6880141655        2.4500444809        1.9285471131
 H         -2.6584188002        1.8527864920        0.6426562101
 H         -4.8937102157       -0.0040009800        1.0602201468
 H         -4.0127369653        0.2763147538        2.5704214867
 O         -1.9418423237       -0.7673488785        2.0378439229
 C         -0.7408963646       -1.4202030425        1.7962570666
 O          0.0075222700       -1.5032477437        2.7914663712
 O         -1.2368688042       -2.1963067792       -1.7042571008
 C          0.8667174959       -2.5109482101        0.2387424775
 C          1.6082443633       -1.6958889561       -0.7980507060
 C          2.6024563858       -2.2374600440       -1.6052162629
 C          3.2626952961       -1.4449328957       -2.5282028347
 C          2.9560031692       -0.1028558687       -2.6673423253
 C          1.9631148544        0.4478654060       -1.8653494449
 C          1.3142812547       -0.3474905099       -0.9352106358
 H          0.5318920032        0.0888719396       -0.3362170942
 N          1.5924217823        1.7922852095       -1.9848363585
 S          0.8712345573        2.6197103744       -0.7326218232
 O         -0.4859870908        2.1756377002       -0.5349016937
 O          1.0282567516        4.0113668893       -1.0994749433
 C          1.8688676246        2.2622387240        0.7014525189
 C          1.3180085650        1.6237067172        1.7924778607
 C          2.1282840847        1.3149110766        2.8732900319
 C          3.4708227756        1.6578215510        2.8467560112
 C          4.0083900395        2.3153040847        1.7499778681
 C          3.2033240043        2.6177673705        0.6645094795
 H          3.5861973600        3.1306010857       -0.2026571396
 H          5.0519515135        2.5855283130        1.7364298145
 H          4.0996373349        1.4109080639        3.6875410886
 H          1.7020199668        0.7892020793        3.7130491839
 H          0.2708787362        1.3618181621        1.7839091668
 H          2.1807466224        2.3704237142       -2.5639687988
 H          3.4653555428        0.5087854327       -3.3957278469
 H          4.0288372736       -1.8796208479       -3.1519555961
 H          2.8523505067       -3.2822612265       -1.5163395408
 H          1.4265674671       -2.4442838345        1.1842600694
 C          0.7412574188       -3.9715713724       -0.1487015966
 C          1.7749346828       -4.9669789754        0.2829587799
 C          0.4176702483       -4.9739165142        0.9171856952
 H         -0.2633839356       -5.7774623936        0.6806425994
 H          0.3223716433       -4.6045605924        1.9282213911
 H          2.0269068574       -5.7721880396       -0.3907169840
 H          2.6031974229       -4.6073833021        0.8748621171
 H          0.2739051593       -4.1035278067       -1.1175457288
