  62
        -98.94468338
 C          1.9798786587        0.8523099719       -0.4316766078
 C          1.1292687675        1.7112116539       -1.1708151258
 C          0.3949952607        2.7186882068       -0.4010691303
 C          0.5373079448        2.7668584373        0.9354664994
 C         -0.1615283249        3.7210235405        1.8652007339
 C         -1.5726920670        3.2602310078        2.2562889335
 C         -2.6311782530        3.4176840029        1.1635273346
 H         -3.6046434319        3.2956591222        1.6427840888
 H         -2.5898774976        4.4301735560        0.7596972313
 C         -2.5145700250        2.3961721339        0.0234464135
 H         -3.5046280223        1.9972536842       -0.2083237571
 H         -1.9034640058        1.5523307535        0.3558715148
 C         -1.9420466702        2.9541688426       -1.2796337154
 H         -1.8561503987        2.1302725551       -1.9926539675
 H         -2.6326492557        3.6913564716       -1.6953836826
 C         -0.5612300943        3.6066234907       -1.1393576360
 H         -0.1565323646        3.7684158289       -2.1416529934
 H         -0.6486508325        4.5696501413       -0.6367429419
 H         -1.5221735985        2.2114671618        2.5621575929
 H         -1.8817563881        3.8485228000        3.1238643936
 H         -0.2094042074        4.7127835925        1.4140257869
 H          0.4470186864        3.7774486274        2.7703888218
 O          1.3673604206        1.9320271480        1.6111842202
 C          2.0634653290        0.9231293419        0.9609879630
 O          2.7206703417        0.1926959336        1.7272344355
 O          0.9804499621        1.6284894951       -2.4205054085
 C          2.6571928554       -0.2790984452       -1.1871689328
 C          2.3204331078       -1.5796413049       -0.5019294246
 C          3.2541792859       -2.5320073136       -0.1205010829
 C          2.8502281473       -3.6695390541        0.5586934006
 C          1.5228949171       -3.8672236205        0.8883871275
 C          0.5782941319       -2.9210722463        0.5024538845
 C          0.9785631511       -1.8112531534       -0.2194379889
 H          0.2465938329       -1.0708120971       -0.5100647042
 N         -0.7800671410       -3.0901537495        0.8139221885
 S         -1.7890991650       -1.7989318695        1.1534600993
 O         -1.0632530267       -0.6021143430        1.5093452465
 O         -2.7110096335       -2.2976274366        2.1539807861
 C         -2.7054834525       -1.5232088510       -0.3519603407
 C         -2.2566057712       -1.9923722314       -1.5692975594
 C         -3.0070800143       -1.7279924975       -2.7056369455
 C         -4.1867222809       -1.0076527777       -2.6082394833
 C         -4.6299067829       -0.5512701567       -1.3764834356
 C         -3.8836717802       -0.8101603630       -0.2384286852
 H         -4.1919608926       -0.4799832895        0.7407053924
 H         -5.5508480870        0.0042019872       -1.2993564295
 H         -4.7644770912       -0.8032352264       -3.4956891107
 H         -2.6640704298       -2.0860958538       -3.6630932592
 H         -1.3382751728       -2.5536755232       -1.6238729570
 H         -0.9832671113       -3.8722416293        1.4182366489
 H          1.2160648005       -4.7375585285        1.4484065638
 H          3.5852452271       -4.4015550206        0.8576148035
 H          4.2999543170       -2.3730956545       -0.3257433180
 H          2.1593185808       -0.2753999684       -2.1722467164
 C          4.1406895987       -0.0871250287       -1.4581682998
 C          4.7545144687        1.2802388517       -1.4596200064
 C          5.1132230684        0.2993732660       -0.3859450801
 H          6.0991391834       -0.1421215436       -0.4066934035
 H          4.7228992395        0.4549965330        0.6071109278
 H          5.4901619420        1.5127785894       -2.2150039339
 H          4.1182970528        2.1129465171       -1.1958363572
 H          4.5052958578       -0.7730309729       -2.2169366957
