  62
        -98.93644403
 C         -2.4711479235       -1.0803162792       -0.6212897179
 C         -3.5842805280       -0.8385921596        0.2268398968
 C         -4.3254450845        0.4045723888       -0.0066262998
 C         -3.9477444628        1.2261433940       -1.0022753172
 C         -4.6144042531        2.5187401780       -1.3875604434
 C         -4.1680841229        3.7255755611       -0.5506788050
 C         -4.6912390698        3.7505491352        0.8860482500
 H         -4.4881509037        4.7469140794        1.2835462358
 H         -5.7734280166        3.6171990666        0.8800297491
 C         -4.0475479907        2.7095804429        1.8128707154
 H         -3.1242231755        2.3389903010        1.3612305687
 H         -3.7720515855        3.1834209313        2.7577243311
 C         -4.9449291021        1.5184104336        2.1491832200
 H         -5.8084693677        1.8604209046        2.7239235029
 H         -4.3753359318        0.8269493832        2.7755131816
 C         -5.4493090381        0.7424690093        0.9254610347
 H         -5.8876617276       -0.1967911546        1.2713222978
 H         -6.2158817034        1.3163817968        0.4051734862
 H         -4.5243994101        4.6239959175       -1.0598956909
 H         -3.0762608117        3.7595166761       -0.5410465827
 H         -5.6967457797        2.4065657359       -1.3181874780
 H         -4.3499217824        2.7060783689       -2.4304885190
 O         -2.8908248226        0.9509083697       -1.8093384176
 C         -2.1104639186       -0.1856282194       -1.6290946908
 O         -1.1555707283       -0.2591370361       -2.4263703851
 O         -3.9462605245       -1.6354985107        1.1327562634
 C         -1.6962554440       -2.3623234046       -0.3709642293
 C         -0.5096561700       -2.1158395686        0.5254794859
 C         -0.3149053506       -2.8633091361        1.6803020085
 C          0.7850702970       -2.6342180141        2.4893559798
 C          1.7095851387       -1.6572021223        2.1665340820
 C          1.5235633060       -0.9044408013        1.0137868912
 C          0.4211502760       -1.1370798105        0.2042330457
 H          0.2829251550       -0.5555494893       -0.6960984010
 N          2.4481319274        0.1099935698        0.6736058283
 S          4.0453517457       -0.3977175336        0.4412653268
 O          4.1096512959       -1.3747121500       -0.6245781885
 O          4.5794333999       -0.8170158698        1.7118589316
 C          4.8099780018        1.1290030107       -0.0630639116
 C          5.0752115010        1.3516129319       -1.4001985595
 C          5.6466737280        2.5568851356       -1.7777468407
 C          5.9362638917        3.5141720219       -0.8173202637
 C          5.6624998799        3.2758240701        0.5215542392
 C          5.0935485168        2.0723988230        0.9059632092
 H          4.8709621363        1.8399515704        1.9340862519
 H          5.8905628193        4.0226142791        1.2648658522
 H          6.3801959970        4.4511908552       -1.1144282895
 H          5.8620464188        2.7437439909       -2.8175347717
 H          4.8375870326        0.5771306071       -2.1121177083
 H          2.1473431982        0.5934905264       -0.1642287953
 H          2.5762299165       -1.4793065026        2.7815615382
 H          0.9242822649       -3.2222070480        3.3839854191
 H         -1.0369542151       -3.6214061632        1.9469733123
 H         -2.3990200834       -3.0042565057        0.1834432016
 C         -1.3283898365       -3.0983300323       -1.6529755325
 C          0.0735099257       -3.2761993288       -2.1467942805
 C         -0.6719045735       -4.4453644862       -1.5809659299
 H         -1.0062567016       -5.2235628161       -2.2500148384
 H         -0.3724076776       -4.7981351497       -0.6053036077
 H          0.2352290941       -3.2275956109       -3.2130706064
 H          0.8867582614       -2.8614804726       -1.5708408471
 H         -2.0863804054       -2.9708530579       -2.4195922467
