  62
        -98.93825557
 C         -2.0226809671       -1.0661440868        0.2256433661
 C         -2.3702784109        0.1017482296       -0.4900660343
 C         -3.6492999653        0.7516125696       -0.1313170294
 C         -4.3950900495        0.2283458640        0.8585958222
 C         -5.7308114481        0.6944490999        1.3735215693
 C         -6.8898512632        0.3222394302        0.4351917169
 C         -6.6217952979        0.5742940194       -1.0460617383
 H         -5.7382261248        0.0108467860       -1.3511642486
 H         -7.4702804585        0.1769570096       -1.6092747090
 C         -6.4486646976        2.0405480617       -1.4349765607
 H         -6.3615225298        2.0790999173       -2.5238741843
 H         -7.3476970371        2.5941605983       -1.1550333072
 C         -5.2333699273        2.7531138539       -0.8372105101
 H         -5.4104133596        3.0325837958        0.1979374211
 H         -5.1001466621        3.6874843899       -1.3906251467
 C         -3.9204357891        1.9859717015       -0.9583315181
 H         -3.0949055968        2.6739988565       -0.7379008718
 H         -3.7753304657        1.6889333313       -2.0033172112
 H         -7.7771936633        0.8757477891        0.7469567954
 H         -7.0959483781       -0.7436628183        0.5596334902
 H         -5.8866622732        0.1960418685        2.3329311671
 H         -5.7088613066        1.7644940662        1.5572500625
 O         -4.0146050275       -0.8935958311        1.5330763364
 C         -2.8450855455       -1.5618947641        1.2424702657
 O         -2.6453147134       -2.5747082166        1.9425886120
 O         -1.6672179860        0.6095890705       -1.4062120281
 C         -0.7477916404       -1.8586301225       -0.0243170823
 C          0.4335805063       -1.1837933838        0.6312651185
 C          1.0704340144       -1.7672535084        1.7204788230
 C          2.1451233436       -1.1410886377        2.3277776686
 C          2.6075170013        0.0760378877        1.8607760492
 C          1.9784435793        0.6652505460        0.7710592398
 C          0.9062076198        0.0322186467        0.1584823367
 H          0.4088712063        0.5042795846       -0.6755322761
 N          2.4364876169        1.9008811406        0.2872296065
 S          4.0846860674        2.1379400215        0.1515405993
 O          4.6273729380        2.5186614282        1.4327326509
 O          4.2453759515        3.1060805211       -0.9108200305
 C          4.7557876648        0.5569364524       -0.3349460115
 C          5.7311888379       -0.0394529792        0.4378267116
 C          6.2284399244       -1.2750688732        0.0552891648
 C          5.7406184896       -1.8914574393       -1.0861732696
 C          4.7621177529       -1.2781461514       -1.8536143948
 C          4.2630953960       -0.0418498260       -1.4776011496
 H          3.5036589332        0.4595015036       -2.0560288785
 H          4.3833930044       -1.7596101068       -2.7408224626
 H          6.1240653492       -2.8554263931       -1.3810814614
 H          6.9903879248       -1.7530085656        0.6496529130
 H          6.0778613249        0.4734684030        1.3202648606
 H          1.9372297702        2.2328336065       -0.5245474570
 H          3.4325821232        0.5853504415        2.3320872562
 H          2.6261660357       -1.6033153867        3.1761442526
 H          0.7042818986       -2.7096845807        2.1010705944
 H         -0.9009228073       -2.8228772899        0.4779530946
 C         -0.4906846883       -2.1215180690       -1.4957216448
 C          0.4276145779       -3.2396974654       -1.8830278619
 C         -1.0465420625       -3.3622065565       -2.1242356813
 H         -1.4125145775       -3.3060608037       -3.1385852372
 H         -1.6143599294       -4.0310158951       -1.4935250890
 H          1.0756843764       -3.1014354930       -2.7345264768
 H          0.8617079102       -3.8278514974       -1.0889033324
 H         -0.4783268346       -1.2243582709       -2.0997254450
