  62
        -98.94870934
 C         -1.4959197399       -1.3693884799       -0.3556948499
 C         -0.3820344301       -1.6605464389       -1.1775007005
 C          0.5885618205       -2.6121667388       -0.6274440416
 C          0.4082245312       -3.1065304498        0.6106955582
 C          1.2880881819       -4.1154129298        1.2984093671
 C          2.5266343620       -3.5094190598        1.9711379870
 C          3.6344304614       -3.0702724087        1.0135143269
 H          4.5276887116       -2.8968071687        1.6172079466
 H          3.8606119314       -3.8821812881        0.3211608462
 C          3.3189604905       -1.7898084283        0.2279237478
 H          2.5106576605       -1.2445536089        0.7234473485
 H          4.1973012202       -1.1388891279        0.2445708879
 C          2.9515225800       -2.0122180974       -1.2397428521
 H          2.6828382294       -1.0455356873       -1.6732227914
 H          3.8203909299       -2.3978387367       -1.7784631028
 C          1.7779483403       -2.9725007578       -1.4662221823
 H          2.0865040108       -3.9979387878       -1.2623517131
 H          1.4762233298       -2.8983357672       -2.5141460421
 H          2.2130026119       -2.6550723703        2.5765119277
 H          2.9351500426       -4.2656896501        2.6458947663
 H          1.5975906620       -4.8795938892        0.5842472465
 H          0.6736093925       -4.5871357606        2.0683933971
 O         -0.6469406886       -2.7573760607        1.3930052188
 C         -1.6127262092       -1.8715671808        0.9400437498
 O         -2.5145614189       -1.6309601518        1.7664862504
 O         -0.2152984208       -1.1598393081       -2.3229380203
 C         -2.5576289705       -0.4084333700       -0.8623346488
 C         -2.5882636607        0.8044986494        0.0331754820
 C         -3.7427036706        1.3271580785        0.5992540829
 C         -3.6675242007        2.4103211380        1.4587731236
 C         -2.4507500809        2.9856203083        1.7740423135
 C         -1.2909602109        2.4808862691        1.1944749026
 C         -1.3725712808        1.4163597497        0.3136810520
 H         -0.4711494808        1.0169650404       -0.1279505287
 N         -0.0427528910        3.0601996595        1.4588107625
 S          1.3846604993        2.2200068102        1.2714325013
 O          1.2583253500        0.8239987099        1.6247325605
 O          2.3493200193        2.9724783601        2.0476215414
 C          1.8005593485        2.3889642215       -0.4540163887
 C          1.0473963378        3.1690287718       -1.3075153979
 C          1.4383052472        3.2773614229       -2.6334738680
 C          2.5697453573        2.6151609036       -3.0820289689
 C          3.3214598680        1.8429708534       -2.2103659897
 C          2.9348733986        1.7298568323       -0.8848346996
 H          3.4877683391        1.1376817221       -0.1734858303
 H          4.2024955180        1.3266652740       -2.5569208204
 H          2.8668826368        2.6991105145       -4.1154252690
 H          0.8540159766        3.8774496231       -3.3124654073
 H          0.1673993977        3.6702805112       -0.9401921472
 H         -0.0110695710        3.7325593690        2.2093909729
 H         -2.3927595309        3.8138453778        2.4634684540
 H         -4.5699725107        2.8026109373        1.9025557842
 H         -4.6979860805        0.8778148282        0.3838832930
 H         -2.2160994711       -0.0947270592       -1.8600130187
 C         -3.8946492603       -1.1048197205       -0.9964919787
 C         -4.9026500509       -0.6159404903       -1.9922694779
 C         -4.1756957605       -1.9038325698       -2.2325314291
 H         -4.7184710300       -2.8318286301       -2.1334337295
 H         -3.4085460508       -1.9264969190       -2.9926259894
 H         -5.9490618608       -0.6610634609       -1.7309247975
 H         -4.6341322415        0.2369074703       -2.5967785575
 H         -4.2534586097       -1.5004086113       -0.0529006888
