  62
        -98.93799643
 C          2.2569741679        1.1543217467        0.0184135166
 C          2.6867987953        0.2524251185        1.0244612774
 C          3.1735959735       -1.0704604475        0.5947555532
 C          3.1982210783       -1.3485475334       -0.7214837345
 C          3.5957787952       -2.6358205820       -1.3920837583
 C          2.4982953278       -3.7087728210       -1.2913510791
 C          1.8255327231       -3.8170951825        0.0750397411
 H          1.3918993914       -2.8487435458        0.3347843111
 H          0.9933273608       -4.5197568884       -0.0226314780
 C          2.7224181438       -4.3072622303        1.2098685225
 H          3.0891339143       -5.3068132082        0.9653269938
 H          2.0974131122       -4.3913684905        2.1024603751
 C          3.9232840746       -3.4228774931        1.5501694770
 H          4.7126703878       -3.5383162615        0.8125234909
 H          4.3304270491       -3.7810263476        2.5002789733
 C          3.5958322274       -1.9462656238        1.7496391344
 H          2.8003223110       -1.8545160661        2.4975785383
 H          4.4690119553       -1.4529737902        2.1937338166
 H          2.9291665172       -4.6728056029       -1.5676222777
 H          1.7196529131       -3.4632869382       -2.0185066748
 H          4.5339016346       -2.9970797892       -0.9811897749
 H          3.7594719601       -2.4049613525       -2.4470897786
 O          2.7938034441       -0.4467783744       -1.6579583734
 C          2.2868939854        0.7959821728       -1.3282828861
 O          1.9222710468        1.4600545924       -2.3225183509
 O          2.6593836186        0.5409942380        2.2515658644
 C          1.6834190805        2.4774726957        0.5022212266
 C          0.1873711660        2.3304833988        0.6459551802
 C         -0.4447901210        2.4820256149        1.8742397652
 C         -1.8053257228        2.2590818394        2.0013144452
 C         -2.5571204218        1.8551330924        0.9116371505
 C         -1.9316323100        1.7018014561       -0.3178507347
 C         -0.5788125833        1.9621456301       -0.4511038055
 H         -0.1048746770        1.8283810399       -1.4127103069
 N         -2.6787331340        1.1921716004       -1.4165733325
 S         -2.6619857522       -0.4989475668       -1.3973359446
 O         -1.3657346114       -1.0142338645       -1.0121660491
 O         -3.1551307608       -0.9146806694       -2.6926533122
 C         -3.8623780742       -0.8771486622       -0.1408666505
 C         -3.4329485031       -1.2995049742        1.1016116244
 C         -4.3768087454       -1.5553896588        2.0839960509
 C         -5.7246684312       -1.3833686342        1.8073408645
 C         -6.1393456146       -0.9597687055        0.5532046325
 C         -5.2009346203       -0.7013859093       -0.4331523307
 H         -5.4746165336       -0.3743074071       -1.4224146407
 H         -7.1883800266       -0.8285554204        0.3424293887
 H         -6.4561245345       -1.5815552023        2.5748056690
 H         -4.0553661635       -1.8838154179        3.0592790172
 H         -2.3738724403       -1.4148390762        1.2708308004
 H         -2.2914087360        1.4867350330       -2.3043911448
 H         -3.6126421984        1.6570172982        1.0029317426
 H         -2.2814350868        2.3825456589        2.9617013701
 H          0.1444349450        2.7519229507        2.7382582407
 H          2.1044518316        2.6290468316        1.5052909933
 C          2.0442285420        3.6709414769       -0.3573933529
 C          1.9773010565        5.0423681309        0.2429754991
 C          3.3063440702        4.4256999634       -0.0717643158
 H          3.8735845955        4.8106177666       -0.9057175264
 H          3.9177086849        4.0828195650        0.7501701285
 H          1.6291850694        5.8564127971       -0.3738364136
 H          1.6893669215        5.1206690329        1.2802312902
 H          1.7579971046        3.5588798481       -1.3948912684
