  62
        -98.94962444
 C          1.4950818204        1.1074301404        0.0138455208
 C          2.4971492302        0.6541400200        0.9017326108
 C          2.9992172502       -0.7045721099        0.6639952904
 C          2.4716370005       -1.4351599095       -0.3358088500
 C          2.9112710805       -2.8212307393       -0.7072550104
 C          4.0257293808       -2.7922263189       -1.7625642402
 C          5.1746837607       -1.8445341991       -1.4184473295
 H          5.9152034809       -1.9271646888       -2.2167090194
 H          4.8030156807       -0.8174810691       -1.4275444992
 C          5.8454006104       -2.1270385696       -0.0670492995
 H          6.9287910104       -2.0860326996       -0.1973869792
 H          5.5966734303       -3.1350697398        0.2666325001
 C          5.4915793001       -1.1281808801        1.0361446809
 H          6.1756468599       -1.2894808604        1.8735605910
 H          5.6518672502       -0.1097936999        0.6735538713
 C          4.0640934600       -1.2221490903        1.5900749405
 H          3.8483337199       -2.2516746204        1.8850166800
 H          4.0121700598       -0.5936104906        2.4844091807
 H          3.5925217410       -2.4757346985       -2.7140765101
 H          4.4109676508       -3.8062015689       -1.8845237005
 H          3.2543379703       -3.3373920497        0.1875604894
 H          2.0481702306       -3.3545710692       -1.1098265409
 O          1.5011041407       -0.9715016991       -1.1611257700
 C          0.9751317707        0.2976402008       -0.9951620097
 O          0.0696570608        0.5901416712       -1.8009349898
 H         -0.3869714700        0.5880159798        1.6049985301
 C         -1.0779828799        1.3016727900        1.1801648503
 C         -0.5998039597        2.3664864203        0.4271635208
 C         -1.5173138895        3.2718317805       -0.0920036691
 C         -2.8747305196        3.0946183104        0.1152085205
 C         -3.3473381898        2.0017249602        0.8186324500
 C         -2.4364220099        1.0970880299        1.3506381698
 N         -2.8561391601       -0.0568233503        2.0488376493
 S         -2.5254026099       -1.5218073201        1.2975417788
 O         -3.1139905602       -2.5267106604        2.1578632182
 O         -1.1122967599       -1.6429847900        1.0503534991
 C         -3.4523723196       -1.4339633794       -0.2245090014
 C         -4.7177450696       -1.9900283194       -0.2505905419
 C         -5.4888284093       -1.8543468089       -1.3929562521
 C         -4.9879409390       -1.1557599185       -2.4815671517
 C         -3.7182294790       -0.6016591385       -2.4373983811
 C         -2.9367862693       -0.7374153390       -1.2991102210
 H         -1.9427293793       -0.3190891290       -1.2501352606
 H         -3.3210011988       -0.0578895182       -3.2794879308
 H         -5.5889926588       -1.0430151381       -3.3700835818
 H         -6.4751053293       -2.2882315489       -1.4295084225
 H         -5.0619183998       -2.5251242197        0.6198908278
 H         -3.8347412701       -0.0395568004        2.3046994691
 H         -4.4069984398        1.8455676201        0.9541602497
 H         -3.5746428895        3.8060863906       -0.2953595693
 H         -1.1685856294        4.1148138607       -0.6660248286
 C          0.8902406204        2.4840389203        0.2175274712
 H          1.3425969202        2.8705592199        1.1436026815
 C          1.2627237007        3.4028747908       -0.9285252983
 C          1.4530732507        4.8715026607       -0.6966047577
 C          2.6390214307        3.9947572608       -0.9601959778
 H          3.1443138409        4.0768167111       -1.9108000176
 H          3.2963405305        3.7585798004       -0.1359441077
 H          1.1463281208        5.5594891110       -1.4699683875
 H          1.3132619404        5.2422860403        0.3075404924
 H          0.8341144209        3.0821975312       -1.8715676786
 O          2.9432452000        1.3515998896        1.8547661012
