  62
        -98.94350570
 C         -1.7954807823       -1.3590971663        0.3108356052
 C         -1.8935167287       -0.1461300457        1.0431117968
 C         -3.1619222268        0.5816858676        0.9359826978
 C         -4.1522487361        0.0804580979        0.1756349058
 C         -5.5299476008        0.6633715946        0.0123047614
 C         -5.6269452742        1.7664933212       -1.0499567309
 C         -4.9874871993        3.0992444244       -0.6598602042
 H         -5.3123034346        3.8383641020       -1.3948345945
 H         -5.3720006262        3.4147547449        0.3106189116
 C         -3.4532924198        3.0757349165       -0.6263457305
 H         -3.0902027262        2.2025136410       -1.1732316597
 H         -3.0646552379        3.9585138363       -1.1387595594
 C         -2.8489503035        3.0650862844        0.7773556604
 H         -1.7626888008        3.0122030811        0.6756352808
 H         -3.0957641089        3.9967334604        1.2913239691
 C         -3.2965069836        1.8897582597        1.6558858972
 H         -4.3252084044        2.0371244342        1.9850234108
 H         -2.6501570687        1.8522931637        2.5365038661
 H         -5.1749806902        1.4015105348       -1.9750490897
 H         -6.6881171510        1.9388840422       -1.2440076098
 H         -6.1803837614       -0.1611886618       -0.2876497407
 H         -5.8785065165        1.0488385034        0.9710727483
 O         -4.0115082770       -1.0672225923       -0.5346153789
 C         -2.8323858442       -1.8012160424       -0.5120062019
 O         -2.8611030440       -2.7974744334       -1.2607188101
 O         -0.9632657139        0.2972539625        1.7688094333
 C         -0.5046880166       -2.1408524779        0.4752241905
 C          0.5118952877       -1.8081969683       -0.5907208013
 C          0.2020650293       -1.8845591662       -1.9442253079
 C          1.1622172258       -1.5932791440       -2.8958627641
 C          2.4400720213       -1.2172986366       -2.5196580333
 C          2.7623730460       -1.1460811944       -1.1692168860
 C          1.7971043010       -1.4449596767       -0.2170464414
 H          2.0618136661       -1.3928843986        0.8275391366
 N          4.0612036663       -0.8070921119       -0.7641643240
 S          4.3594060502        0.1708802113        0.5578268172
 O          5.7742890809        0.4565072715        0.4706218560
 O          3.9148881137       -0.4767983719        1.7648823004
 C          3.4340410549        1.6643813846        0.2543073341
 C          4.0421918343        2.6530571184       -0.4966764849
 C          3.3401417178        3.8119381809       -0.7818721333
 C          2.0420421594        3.9624689299       -0.3167264677
 C          1.4477465751        2.9612282891        0.4340637501
 C          2.1431895919        1.7976093992        0.7234738594
 H          1.6853614029        1.0140469510        1.3056265384
 H          0.4401059739        3.0669630484        0.8041248003
 H          1.4917126459        4.8638742268       -0.5360494586
 H          3.8042736588        4.5928474811       -1.3624534234
 H          5.0579503918        2.5018030253       -0.8244931409
 H          4.6942968919       -0.5916527203       -1.5203511999
 H          3.1864410328       -0.9905676158       -3.2656054334
 H          0.9119639487       -1.6567604867       -3.9441312370
 H         -0.7931437975       -2.1800887905       -2.2399824438
 H         -0.0879003251       -1.8092328097        1.4370323585
 C         -0.7028382410       -3.6433675748        0.5404481664
 C          0.3370456893       -4.4838595706        1.2157120421
 C         -1.0036688811       -4.2898741564        1.8574504041
 H         -1.6942265335       -5.1194898539        1.8772792922
 H         -1.0645085170       -3.6510642474        2.7268200076
 H          0.5704464379       -5.4495749684        0.7943849387
 H          1.1866459415       -3.9786881993        1.6510280323
 H         -1.1886982570       -4.0506903417       -0.3364302203
