  62
        -98.93918885
 C         -2.3240878848       -0.8569944992        0.6352420670
 C         -3.4253902314       -0.9558702871       -0.2507136959
 C         -4.5590909087       -0.0662385024        0.0374939109
 C         -4.5203717901        0.7561254453        1.1002514502
 C         -5.6050490572        1.7067054413        1.5288636998
 C         -5.5794049443        3.0543185114        0.7944805266
 C         -6.0365186205        3.0094591275       -0.6641753660
 H         -7.0060413133        2.5141438685       -0.7244549666
 H         -6.1777112090        4.0428694828       -0.9869379304
 C         -5.0464901885        2.3258553091       -1.6177144666
 H         -4.0654513891        2.2613660529       -1.1408510192
 H         -4.9250665574        2.9362890749       -2.5153785208
 C         -5.4673672368        0.9286885138       -2.0734885196
 H         -6.3797535867        0.9970034114       -2.6699950486
 H         -4.6766160938        0.5243277257       -2.7102403813
 C         -5.7061273890       -0.0634666120       -0.9279665652
 H         -6.6365604302        0.1725817319       -0.4125222537
 H         -5.7846005674       -1.0666682552       -1.3535303596
 H         -4.5666131929        3.4607317077        0.8470130573
 H         -6.2388175366        3.7340987008        1.3390835790
 H         -6.5792028139        1.2358261100        1.3944096372
 H         -5.4517451764        1.8918601265        2.5942239711
 O         -3.4566757691        0.8014439156        1.9466801162
 C         -2.3372896274        0.0186073088        1.7256678896
 O         -1.4323592595        0.1802402927        2.5708156427
 H          1.2980233545       -0.3930004914        0.7994165512
 C          1.0236411202       -0.4728269112       -0.2429581678
 C         -0.1663524075       -1.0898866324       -0.6016843515
 C         -0.5067850287       -1.1571976627       -1.9490790425
 C          0.3345835655       -0.6259237712       -2.9090813388
 C          1.5336374046       -0.0360012607       -2.5504351691
 C          1.8768697608        0.0474627450       -1.2060054863
 N          3.0731602892        0.6666873071       -0.8097527251
 S          3.8869469149        0.0584855368        0.5380293746
 O          3.8869484707       -1.3868990662        0.5040115348
 O          3.3477296034        0.6709373224        1.7261800155
 C          5.5292130516        0.6823745519        0.2318543035
 C          6.4520048377       -0.1254510712       -0.4056688250
 C          7.7166625581        0.3783096285       -0.6665267942
 C          8.0344650399        1.6746571780       -0.2900293367
 C          7.0979923117        2.4731615443        0.3498164279
 C          5.8319708550        1.9754795021        0.6145360083
 H          5.0743576398        2.5539913198        1.1173407121
 H          7.3493540211        3.4795303827        0.6436070649
 H          9.0192024395        2.0645081030       -0.4937077687
 H          8.4479544724       -0.2408796655       -1.1605118288
 H          6.1630746602       -1.1297231332       -0.6710601514
 H          3.7004742915        0.8430722513       -1.5825840742
 H          2.1953039885        0.3657313912       -3.3028845300
 H          0.0589271738       -0.6826296697       -3.9513772336
 H         -1.4420629328       -1.6142509124       -2.2317520439
 C         -1.0524090608       -1.6749790074        0.4729376810
 H         -0.5150485928       -1.5785917267        1.4268696824
 C         -1.3143317102       -3.1476802088        0.2214262081
 C         -0.1963156886       -4.1210776473        0.4374363573
 C         -1.3594528596       -4.0921749632        1.3823775843
 H         -2.0665500109       -4.9076484206        1.3557465391
 H         -1.2048182601       -3.6797740212        2.3693334815
 H          0.7496938394       -3.7263919840        0.7799013286
 H         -0.1038376532       -4.9578919541       -0.2377566254
 H         -1.9957558376       -3.3329049070       -0.5978717771
 O         -3.4882198078       -1.7393717641       -1.2338938247
