  62
        -98.94789265
 C          1.2997416462        1.1597002681        0.0078543264
 C          2.2616650271        0.7700744278        0.9674456571
 C          2.8435215164       -0.5663919556        0.7882153110
 C          2.4042582114       -1.3453432973       -0.2169786881
 C          2.9283758243       -2.7164858102       -0.5301690023
 C          4.0874587702       -2.6555499593       -1.5350025033
 C          5.1681971107       -1.6383027618       -1.1693192147
 H          5.9474062545       -1.7032337109       -1.9316994993
 H          4.7447198340       -0.6329726255       -1.2256077358
 C          5.7920030130       -1.8465010393        0.2176183825
 H          6.8761460192       -1.7465202282        0.1332621000
 H          5.5861937805       -2.8582762561        0.5689660925
 C          5.3339750726       -0.8413960497        1.2760952717
 H          5.9895832247       -0.9400247609        2.1454096462
 H          5.4513507565        0.1748932738        0.8914616740
 C          3.8913810651       -1.0041350934        1.7722969126
 H          3.7205952610       -2.0374793793        2.0827983243
 H          3.7650270344       -0.3608098401        2.6484955286
 H          3.6830389971       -2.3885297700       -2.5138955397
 H          4.5310109023       -3.6500532466       -1.6095939128
 H          3.2556078081       -3.1917429470        0.3927877108
 H          2.1156083356       -3.3062301903       -0.9582718439
 O          1.4537184484       -0.9495953259       -1.1013427048
 C          0.8859046029        0.3158404878       -1.0214121249
 O          0.0433852679        0.5588130311       -1.9046210031
 H         -0.6968850249        0.6239662529        1.4764547348
 C         -1.3690507970        1.3240376142        1.0015843058
 C         -0.8585402863        2.3721896409        0.2458619127
 C         -1.7516425754        3.2599832848       -0.3418843412
 C         -3.1163927362        3.0888203006       -0.1886948536
 C         -3.6192365720        2.0289138000        0.5428919774
 C         -2.7345586993        1.1405413701        1.1428731099
 N         -3.2050818995        0.0544204929        1.9082001705
 S         -2.6885065930       -1.4846291084        1.5045316331
 O         -3.5735780204       -2.3632894798        2.2411067282
 O         -1.2811174906       -1.6314304696        1.7758767296
 C         -3.0159998772       -1.6399543469       -0.2408645272
 C         -1.9695118735       -1.7778091181       -1.1263724398
 C         -2.2429575943       -1.8512607054       -2.4829778716
 C         -3.5538478851       -1.7861088989       -2.9263995251
 C         -4.5984239584       -1.6590428978       -2.0223665571
 C         -4.3298635629       -1.5835377172       -0.6662859642
 H         -5.1166873472       -1.4989125430        0.0658889151
 H         -5.6174349770       -1.6147646221       -2.3716766209
 H         -3.7619696925       -1.8364962066       -3.9835548408
 H         -1.4249959052       -1.9406945339       -3.1793431307
 H         -0.9617222356       -1.8148130621       -0.7459436826
 H         -4.2075631739        0.0534678671        2.0368566600
 H         -4.6837058490        1.8899530652        0.6552886785
 H         -3.7973382596        3.7854229741       -0.6531742732
 H         -1.3775248683        4.0869203681       -0.9228805270
 C          0.6393298635        2.5189591896        0.1268205305
 H          1.0164826487        2.9477517858        1.0681162811
 C          1.0638804041        3.4140382120       -1.0203439054
 C          1.2080596386        4.8925393817       -0.8207202997
 C          2.4266507455        4.0360961379       -0.9826618811
 H          2.9898161678        4.1029722964       -1.9014063689
 H          3.0349532763        3.8392076625       -0.1116553278
 H          0.9366767969        5.5512947313       -1.6318629409
 H          0.9969323290        5.2884476410        0.1611955241
 H          0.7029161008        3.0568046167       -1.9783281805
 O          2.6156487515        1.5056616264        1.9300293554
