  62
        -98.93809666
 C          1.5444050549        1.6130071379        0.1716672339
 C          1.4619564566        0.3292660974       -0.4195052575
 C          2.5215350687       -0.6210113878       -0.0417281549
 C          3.4569221694       -0.2473722398        0.8494555217
 C          4.6424464813       -1.0705145545        1.2666688738
 C          5.7293797158       -1.0157035929        0.1738182326
 C          6.0013704537       -2.3533234669       -0.5153141981
 H          6.6128185070       -2.1477112463       -1.3966446747
 H          6.5912284601       -2.9834750234        0.1537143392
 C          4.7650088600       -3.1513063972       -0.9408559307
 H          4.3526269795       -3.6753209121       -0.0775108047
 H          5.1082065575       -3.9200388210       -1.6365654974
 C          3.6430922174       -2.3464529269       -1.6097181584
 H          4.0404144338       -1.4381759755       -2.0632885682
 H          3.2294161845       -2.9504581455       -2.4198157702
 C          2.4730150168       -1.9828296754       -0.6760263837
 H          1.5460392353       -1.9836941376       -1.2560061519
 H          2.3782619738       -2.7445729077        0.1013764622
 H          5.4288336642       -0.2757071251       -0.5710052770
 H          6.6647738734       -0.6595920615        0.6082502602
 H          4.3339392980       -2.0974057865        1.4485073550
 H          5.0199555341       -0.6483466865        2.1981253248
 O          3.4756057945        0.9815511871        1.4285608567
 C          2.5309861356        1.9389934928        1.1045697445
 O          2.6717283798        3.0238394335        1.7037656471
 O          0.5623430074       -0.0137936453       -1.2301539289
 C          0.5277337298        2.6946599780       -0.1594139538
 C         -0.8211678615        2.2445750711        0.3435312851
 C         -1.1051636554        2.3525681279        1.7020668073
 C         -2.3047230010        1.8924572558        2.2117192216
 C         -3.2390497491        1.2982698178        1.3806802235
 C         -2.9558151520        1.1691136145        0.0279753056
 C         -1.7617229391        1.6568027444       -0.4868303167
 H         -1.5560013864        1.5454837456       -1.5390434367
 N         -3.8847771799        0.5400901734       -0.8240737227
 S         -4.4335926202       -0.9805621806       -0.3875525938
 O         -4.9942409042       -1.5408007137       -1.5963883161
 O         -5.3375381100       -0.8529688597        0.7285744655
 C         -2.9860979345       -1.8973681940        0.1049289929
 C         -2.6391533659       -1.9586770219        1.4391733518
 C         -1.4879139645       -2.6398505849        1.7994310688
 C         -0.7123915996       -3.2487786954        0.8258556319
 C         -1.0771792608       -3.1823028664       -0.5094810476
 C         -2.2206412617       -2.4935510927       -0.8767173794
 H         -2.5381946200       -2.4224405460       -1.9045416155
 H         -0.4728599340       -3.6601294049       -1.2636823728
 H          0.1808574649       -3.7823131068        1.1104174269
 H         -1.1998037144       -2.6928275037        2.8372445917
 H         -3.2749804332       -1.4853982362        2.1688966176
 H         -3.5843989310        0.5263554063       -1.7886338311
 H         -4.1770773036        0.9267780495        1.7603622812
 H         -2.5151701658        1.9935469350        3.2657399821
 H         -0.3656403981        2.7966477331        2.3543821663
 H          0.8298628177        3.5787631449        0.4173823865
 C          0.5524715196        3.0436866818       -1.6328854631
 C         -0.0934014012        4.3128135026       -2.0988634559
 C          1.4000056375        4.1878429284       -2.0977655327
 H          1.9114458394        4.0989623488       -3.0446085100
 H          1.9593865295        4.7313056019       -1.3502012058
 H         -0.6083872222        4.3139801164       -3.0474687092
 H         -0.5500783838        4.9424896458       -1.3503038835
 H          0.4979129325        2.1777085817       -2.2809736711
