  62
        -98.93518780
 C          2.0215206100        0.5359080736        0.0700701105
 C          2.6714565689       -0.4200027087        0.8934462510
 C          3.9070513852       -1.0048385984        0.3649860914
 C          4.3311011045       -0.6617086417       -0.8645057164
 C          5.5575353681       -1.1886212357       -1.5587191978
 C          6.8532579712       -0.4616461550       -1.1734172190
 C          7.3791069277       -0.7680203735        0.2295350807
 H          7.4455004161       -1.8482340212        0.3634546674
 H          8.3944095809       -0.3703006565        0.2848154921
 C          6.5475494344       -0.1562495418        1.3656369013
 H          5.9056520057        0.6310477702        0.9638217452
 H          7.2139097786        0.3138601668        2.0923943667
 C          5.6811566002       -1.1589032447        2.1278721304
 H          6.3207203241       -1.8788210853        2.6434012442
 H          5.1107429416       -0.6135652958        2.8841232332
 C          4.6871547333       -1.9300221594        1.2494943515
 H          5.2125365356       -2.6744330632        0.6513769021
 H          3.9773572816       -2.4437970881        1.9026277656
 H          6.6939305018        0.6141846378       -1.2762856564
 H          7.6179320107       -0.7547358114       -1.8964779429
 H          5.6632658414       -2.2551799764       -1.3575138504
 H          5.3909933586       -1.0517619302       -2.6293985353
 O          3.6543827837        0.2163038386       -1.6468079165
 C          2.4978373539        0.8512338131       -1.2043163983
 O          2.0198687139        1.6394301715       -2.0367977890
 H         -0.7763460762       -0.9301215734        1.0316568534
 C         -1.1078841816       -0.3896442058        0.1542613028
 C         -0.4313304159        0.7673687876       -0.2224942571
 C         -0.8666926575        1.4322888817       -1.3631429707
 C         -1.9384882238        0.9488837203       -2.0950254086
 C         -2.6024669909       -0.2026808804       -1.7161391939
 C         -2.1758277705       -0.8805539967       -0.5815054762
 N         -2.8460707298       -2.0486947221       -0.1789057462
 S         -4.5193684003       -2.0059243205       -0.1519542149
 O         -4.9086170239       -2.9729569137        0.8502450357
 O         -5.0319445174       -2.2357405774       -1.4797629538
 C         -4.9276253804       -0.3511250848        0.3765622009
 C         -5.6281454625        0.4892280163       -0.4641598786
 C         -5.8943932419        1.7840182262       -0.0479978921
 C         -5.4524390842        2.2150723512        1.1929387435
 C         -4.7530415916        1.3572845781        2.0283292825
 C         -4.4866076957        0.0612749314        1.6185815923
 H         -3.9499669069       -0.6314571064        2.2469471848
 H         -4.4098978876        1.6944839968        2.9932077915
 H         -5.6537013695        3.2252307844        1.5127726593
 H         -6.4397813010        2.4525225225       -0.6944381004
 H         -5.9492253312        0.1147112750       -1.4224693444
 H         -2.4742687867       -2.4663886990        0.6613749933
 H         -3.4296194349       -0.5948243041       -2.2853019117
 H         -2.2559353561        1.4780719583       -2.9806353384
 H         -0.3479163157        2.3072024457       -1.7107655682
 C          0.7499105324        1.1655206102        0.6266217071
 H          0.6179365886        0.6489285302        1.5902202087
 C          0.9313602987        2.6322443636        0.9980893370
 C          1.0905883068        3.7792659859        0.0474345191
 C         -0.1554554555        3.6573208183        0.8706960886
 H         -0.2994357795        4.3525379648        1.6842156044
 H         -1.0667405376        3.3630097162        0.3741912138
 H          1.8064716873        4.5440686934        0.3152657771
 H          1.0603856438        3.5830931565       -1.0107006492
 H          1.5442852358        2.7034634689        1.8938218180
 O          2.2349279493       -0.7710692529        2.0238106578
