  62
        -98.93328925
 C         -1.8834574527       -0.8179399342       -0.5572092167
 C         -2.7790116664       -0.9896013108        0.5283045474
 C         -3.8814884591       -0.0228345657        0.6590225763
 C         -3.9822224781        0.9775483055       -0.2353489961
 C         -4.9525695700        2.1366365326       -0.3334825284
 C         -6.2303142090        2.1564316275        0.5012345219
 C         -7.2652174455        1.1022936077        0.1087939685
 H         -7.6764594507        1.3678939182       -0.8683745818
 H         -8.0811467497        1.1374939231        0.8338859855
 C         -6.7443803815       -0.3295911851        0.0147405604
 H         -5.9874900013       -0.3933048345       -0.7697261101
 H         -7.5776708662       -0.9689524154       -0.2891808108
 C         -6.1678213974       -0.9017160677        1.3081192923
 H         -5.9810850622       -1.9660910834        1.1425420218
 H         -6.9036071238       -0.8121044764        2.1095913831
 C         -4.8479213270       -0.2693510889        1.7817612242
 H         -4.3566050111       -0.9768852891        2.4560525944
 H         -5.0264775515        0.6449816826        2.3427685011
 H         -6.6860156605        3.1386968065        0.3491558951
 H         -5.9895874268        2.0819114506        1.5575965296
 H         -5.2147535167        2.2175018330       -1.3933318558
 H         -4.3671741677        3.0315089717       -0.0939014133
 O         -3.0910117565        1.1122012944       -1.2590079122
 C         -2.0284976550        0.2351990526       -1.4588763759
 O         -1.3416863735        0.5166383068       -2.4562252665
 O         -2.6580818339       -1.9259532938        1.3635633655
 C         -0.7458219586       -1.8208030236       -0.6351553360
 C          0.3466020923       -1.4328054366        0.3300519069
 C          0.8723866010       -2.3697049727        1.2131752678
 C          1.8558133096       -2.0157763663        2.1191524100
 C          2.3490090737       -0.7239780555        2.1434765806
 C          1.8342172873        0.2192086258        1.2617798685
 C          0.8313591421       -0.1321473148        0.3697380728
 H          0.4331609968        0.6166900335       -0.2993378039
 N          2.3346383025        1.5415414141        1.2389171285
 S          3.2799022254        1.9239736622       -0.0920647405
 O          3.7633897239        3.2653942452        0.1478805785
 O          2.5279519463        1.7045956705       -1.2981687400
 C          4.6382668260        0.7691715142        0.0058495403
 C          4.4572746264       -0.5137232107       -0.4721524827
 C          5.4829999587       -1.4339053395       -0.3229405872
 C          6.6638957536       -1.0584043278        0.2991842133
 C          6.8309718498        0.2344602211        0.7721077481
 C          5.8072422683        1.1576387517        0.6308247026
 H          5.8927681872        2.1741020414        0.9798599883
 H          7.7517159608        0.5249302765        1.2518477346
 H          7.4590017372       -1.7780421059        0.4138206595
 H          5.3528597708       -2.4384136858       -0.6918950627
 H          3.5286131846       -0.7678920909       -0.9572720505
 H          2.8391637320        1.7927033157        2.0788775604
 H          3.1206553215       -0.4411800812        2.8438721446
 H          2.2451448803       -2.7510786448        2.8060515395
 H          0.4859074905       -3.3779142076        1.1988912246
 H         -1.1749192936       -2.7674209996       -0.2669069588
 C         -0.2257169838       -2.0884906161       -2.0378486481
 C          0.9694550769       -1.4081253504       -2.6261292319
 C          1.0530127178       -2.8505945990       -2.2322471494
 H          1.0970158052       -3.5946679020       -3.0129778088
 H          1.6222880243       -3.0986430391       -1.3488039957
 H          0.9265067081       -1.1537328823       -3.6744308026
 H          1.4795876282       -0.6596651961       -2.0396485523
 H         -1.0353250542       -2.3041688545       -2.7280120900
