  62
        -98.93840855
 C         -1.7814646622       -1.3615709615        0.1764435635
 C         -2.0034300598       -0.3253701925       -0.7598881788
 C         -3.3630434978        0.2469738327       -0.8029490394
 C         -4.3051050147       -0.1988081468        0.0477214427
 C         -5.7639082604        0.1743828575        0.2075599025
 C         -6.3180411936        1.4546511235       -0.4126359996
 C         -5.7661295100        2.7482979940        0.1848289107
 H         -6.1344717843        2.8442457393        1.2093672068
 H         -6.1647428274        3.5864756656       -0.3910522714
 C         -4.2439395329        2.8574742931        0.2304578817
 H         -3.8406637013        2.0948247696        0.9002235054
 H         -3.9916125995        3.8293133886        0.6637503172
 C         -3.5403197781        2.7543128916       -1.1215823164
 H         -2.4908640017        3.0191939363       -0.9654285323
 H         -3.9676753981        3.4818829055       -1.8143856287
 C         -3.5748899946        1.3651066424       -1.7830952789
 H         -2.7477324126        1.3116031487       -2.4966409319
 H         -4.4964026071        1.2146852571       -2.3401326473
 H         -7.3967390505        1.4438172863       -0.2340104146
 H         -6.1782945078        1.4446362451       -1.4896012933
 H         -6.3335001587       -0.6744672463       -0.1869756454
 H         -5.9470844996        0.1921254201        1.2866557138
 O         -4.0425258775       -1.1925576469        0.9452337764
 C         -2.8017878394       -1.7928101387        1.0295978932
 O         -2.7291397024       -2.6910024446        1.8917826169
 H          0.4607925824        0.4108191935       -0.1307555785
 C          0.9113471382       -0.0209185416        0.7506719138
 C          0.5392984381       -1.2972374983        1.1477946993
 C          1.1357421449       -1.8381178510        2.2804727733
 C          2.0808964165       -1.1199641239        2.9932875232
 C          2.4479904114        0.1530855804        2.5940336903
 C          1.8497313549        0.7037089445        1.4691045193
 N          2.2303381057        1.9978859854        1.0397591349
 S          3.7835368992        2.0721533751        0.4101410313
 O          4.7276628157        1.8796613674        1.4812940202
 O          3.8662403361        3.3292101100       -0.2982567033
 C          3.8578124536        0.7030382894       -0.7296736708
 C          4.3094770892       -0.5231318081       -0.2852923121
 C          4.2769661183       -1.6015981801       -1.1541511351
 C          3.7921682824       -1.4362779262       -2.4423002435
 C          3.3380696828       -0.1990414630       -2.8720203398
 C          3.3646502747        0.8820009891       -2.0064288443
 H          3.0218265344        1.8606676324       -2.3028973084
 H          2.9563804648       -0.0749788431       -3.8728500555
 H          3.7687523234       -2.2761141011       -3.1192521508
 H          4.6239691559       -2.5665620791       -0.8215734806
 H          4.6798676335       -0.6085096348        0.7230446567
 H          1.5892069106        2.3738780853        0.3539047047
 H          3.1934177232        0.7223216820        3.1254694743
 H          2.5359285884       -1.5552888983        3.8699182718
 H          0.8480356447       -2.8267744900        2.6068986074
 C         -0.4559991792       -2.0903377503        0.3360712940
 H         -0.6931037441       -3.0046741931        0.8959698309
 C          0.1662350867       -2.4889865166       -0.9898097234
 C          1.0717873721       -3.6805782456       -1.0369911396
 C         -0.2891455008       -3.7478121469       -1.6611578148
 H         -0.3673513559       -3.7572088238       -2.7377673132
 H         -1.0520982821       -4.3301228875       -1.1644938214
 H          1.2331042760       -4.2234026711       -0.1181614764
 H          1.9325815807       -3.6445992824       -1.6852937693
 H          0.4076396864       -1.6448178182       -1.6221553224
 O         -1.1250606688        0.1254640030       -1.5443946748
