  62
        -98.93837998
 C          1.9251118247        1.2707511003        0.4171606363
 C          2.7250622859        0.9688526637       -0.7092881043
 C          3.9795632183        0.2379043274       -0.4426519484
 C          4.2695006952       -0.1295843652        0.8171709916
 C          5.4600716193       -0.9134820315        1.2967463497
 C          5.1412935228       -2.4173782625        1.3482504766
 C          5.3901616633       -3.1740821499        0.0441536877
 H          6.4660344869       -3.2487878150       -0.1274052882
 H          5.0087863881       -4.1889818354        0.1790106422
 C          4.7375720793       -2.5649299604       -1.1994551432
 H          4.6651710117       -3.3477738221       -1.9570265299
 H          3.7187790724       -2.2502464981       -0.9646202410
 C          5.5291245213       -1.3831399775       -1.7788906319
 H          6.5145895495       -1.3510805760       -1.3146445895
 H          5.6951881150       -1.5476648334       -2.8455963852
 C          4.8482130552       -0.0141500921       -1.6449767054
 H          4.1851777512        0.1461040695       -2.5012097928
 H          5.6120995294        0.7694288585       -1.6914815077
 H          5.7512628062       -2.8783984922        2.1278215313
 H          4.0948304464       -2.5289481537        1.6441581507
 H          6.3278767676       -0.7166263893        0.6745363685
 H          5.6697136374       -0.5681398629        2.3113533371
 O          3.4410382661        0.1346507482        1.8661727679
 C          2.2596957656        0.8298459392        1.6973005729
 O          1.5982869227        0.9861173102        2.7451912856
 O          2.4170394298        1.2911909340       -1.8858208067
 C          0.6265555172        2.0462340402        0.2641627848
 C         -0.3721208112        1.1944262239       -0.4815377934
 C         -0.9003180473        1.5227806450       -1.7218618118
 C         -1.7985782136        0.6730303455       -2.3464206007
 C         -2.1985547379       -0.5053960644       -1.7449957242
 C         -1.6882243458       -0.8341186178       -0.4943765851
 C         -0.7835674955        0.0129005894        0.1253618444
 H         -0.3799209914       -0.2439713493        1.0972631945
 N         -2.1172091159       -2.0138534670        0.1395487461
 S         -3.7674314423       -2.3040067184        0.1673718253
 O         -3.9988934011       -3.0798933277        1.3657232265
 O         -4.1682053126       -2.9262247725       -1.0699152535
 C         -4.5229612539       -0.6928686166        0.3035730846
 C         -4.2204721937        0.0763234254        1.4098426445
 C         -4.7644982356        1.3461662378        1.5120729586
 C         -5.5974996745        1.8230352409        0.5113066924
 C         -5.8973061489        1.0357767710       -0.5892920392
 C         -5.3541942589       -0.2344527525       -0.6979434950
 H         -5.5571965111       -0.8781788614       -1.5381573593
 H         -6.5472781232        1.4082292691       -1.3644470141
 H         -6.0148495219        2.8142619429        0.5920198610
 H         -4.5324094917        1.9588981337        2.3684941355
 H         -3.5718963761       -0.3235011510        2.1732955415
 H         -1.7074730862       -2.1579672200        1.0507323756
 H         -2.8907429803       -1.1802538642       -2.2219828947
 H         -2.1926228652        0.9333636346       -3.3167092501
 H         -0.5989785011        2.4358556113       -2.2069103847
 H          0.2445383578        2.1876855159        1.2852301171
 C          0.8651772340        3.4052904487       -0.3562609415
 C         -0.1450448477        4.4939943386       -0.1587043772
 C          1.1796678318        4.5652570290        0.5380216688
 H          1.9029418396        5.2930294740        0.2019665708
 H          1.2109832648        4.3807995523        1.6022726760
 H         -0.3329747920        5.1778727063       -0.9721314700
 H         -1.0171176925        4.2623965019        0.4337409358
 H          1.3854090112        3.3531018728       -1.3046405982
