  62
        -98.94090800
 C         -2.2864052982       -0.9178216863       -0.2165046718
 C         -3.6024446795       -1.2058973656        0.2194699809
 C         -4.6597079526       -0.3496745995       -0.3286843955
 C         -4.3440321621        0.6204912360       -1.2059632365
 C         -5.3126550180        1.5593564317       -1.8728347193
 C         -5.6719579330        2.7885468149       -1.0267253770
 C         -6.5860071604        2.5110933208        0.1674137129
 H         -6.9289894225        3.4785371201        0.5394115417
 H         -7.4651974548        1.9614844477       -0.1699942443
 C         -5.9112466050        1.7510498468        1.3178628031
 H         -4.8259820115        1.8072576927        1.2039866103
 H         -6.1581851802        2.2325582891        2.2667344564
 C         -6.3219528091        0.2830808927        1.4344449373
 H         -7.3845770999        0.2182385254        1.6781503400
 H         -5.7596810558       -0.1658115790        2.2571739303
 C         -6.0586130883       -0.5488061472        0.1721800053
 H         -6.1729760656       -1.6050941497        0.4270805843
 H         -6.7806133189       -0.2951324737       -0.6034368040
 H         -6.1748700421        3.5009790628       -1.6846932474
 H         -4.7468394564        3.2539122785       -0.6784507182
 H         -6.2220523201        1.0199066145       -2.1388056657
 H         -4.8297207001        1.9021713092       -2.7904402743
 O         -3.0674759522        0.8543044389       -1.6138125631
 C         -2.0062217474        0.1127307146       -1.1133242527
 O         -0.8905034780        0.4622850530       -1.5457939673
 O         -3.8785158618       -2.1316122935        1.0283852365
 C         -1.1371722597       -1.7474173378        0.3283601627
 C         -0.1823940540       -0.8499976607        1.0756789726
 C         -0.6746589789       -0.1057772041        2.1458228828
 C          0.1488138470        0.7511264658        2.8481186614
 C          1.4789872750        0.8900246576        2.4916288758
 C          1.9835190699        0.1456042831        1.4326014485
 C          1.1561498618       -0.7285405600        0.7393169721
 H          1.5685405471       -1.2878860312       -0.0822692292
 N          3.3471153761        0.2399568044        1.0898359842
 S          3.8060325546        0.3805617424       -0.5305408525
 O          3.2676281323        1.5964604729       -1.1007691252
 O          3.5137834093       -0.8484676438       -1.2208103618
 C          5.5706788755        0.5405203342       -0.3187891312
 C          6.3093752519       -0.6003208705       -0.0687298318
 C          7.6763326276       -0.4844124414        0.1263081881
 C          8.2791581661        0.7635345375        0.0690669971
 C          7.5255844623        1.8992681742       -0.1855020254
 C          6.1574433558        1.7899810667       -0.3801532949
 H          5.5329515106        2.6437234588       -0.5894718125
 H          7.9971765239        2.8676069268       -0.2332657267
 H          9.3433682197        0.8510766405        0.2208517369
 H          8.2659498418       -1.3656163316        0.3213868730
 H          5.7987057332       -1.5486075960       -0.0420152985
 H          3.8111027850        0.9684681864        1.6184314256
 H          2.1216651086        1.5692190179        3.0317022427
 H         -0.2473709350        1.3235496979        3.6735188455
 H         -1.7180728393       -0.2064841593        2.4130311828
 H         -1.5952907735       -2.4395220813        1.0506796102
 C         -0.4863659043       -2.5559093812       -0.7725898512
 C          0.2471427568       -3.8192577374       -0.4387659632
 C         -1.0725804333       -3.8832710108       -1.1455576719
 H         -1.0888646944       -4.1641080972       -2.1879562909
 H         -1.9361719852       -4.2171040660       -0.5889746082
 H          1.1425123886       -4.0531039725       -0.9946901320
 H          0.2813901722       -4.1152903552        0.5987894081
 H         -0.0975550022       -1.9380167085       -1.5752631567
