  62
        -98.93294427
 C         -2.2671629855       -0.7008464121        0.6197128093
 C         -3.3653391735       -0.9241475401       -0.2424513495
 C         -4.5820100362       -0.1182180816       -0.0012766703
 C         -4.5867059893        0.7753498935        1.0041561673
 C         -5.6804696687        1.7273459006        1.4104676069
 C         -5.8026485375        2.9310911447        0.4632066955
 C         -5.7535230414        2.5848037960       -1.0223256967
 H         -5.7545873235        3.5240050153       -1.5818298390
 H         -4.8111316020        2.0792954156       -1.2407951855
 C         -6.9166738086        1.7361444106       -1.5304025716
 H         -7.8554795294        2.2555986792       -1.3260932559
 H         -6.8099234745        1.6580281952       -2.6153029289
 C         -7.0095491729        0.3183360374       -0.9613980339
 H         -7.7027052842       -0.2415444177       -1.5959976858
 H         -7.4396612844        0.3204426885        0.0365031159
 C         -5.6949681962       -0.4550535233       -0.9650488458
 H         -5.9139402800       -1.5164185972       -0.7977130310
 H         -5.2537562957       -0.4082520294       -1.9670188894
 H         -4.9748082684        3.6125277939        0.6744273647
 H         -6.7346762212        3.4525023244        0.6880150363
 H         -5.4202011757        2.0934981384        2.4061393851
 H         -6.6262997169        1.1997579328        1.4889286256
 O         -3.5017733257        0.9606099616        1.8109986011
 C         -2.3378605841        0.2408912370        1.6503618501
 O         -1.4472683217        0.5172078173        2.4811219360
 O         -3.3661434218       -1.7555939831       -1.1893105065
 C         -0.9498804312       -1.4520466315        0.5150950189
 C         -0.0641577088       -0.8913241631       -0.5723870454
 C         -0.4234903210       -0.9564479137       -1.9147940575
 C          0.4255606504       -0.4651039459       -2.8892188258
 C          1.6518619419        0.0787281156       -2.5500051815
 C          2.0161661350        0.1559621010       -1.2108661681
 C          1.1537589434       -0.3201637820       -0.2332814459
 H          1.4451186726       -0.2439355775        0.8045751603
 N          3.2442812993        0.7223617084       -0.8329194364
 S          4.0427192757        0.0802283992        0.5089166781
 O          3.9717879946       -1.3634721047        0.4824385025
 O          3.5462473987        0.7231632207        1.6997101138
 C          5.7102145486        0.6219489133        0.1834929063
 C          6.5933105729       -0.2408983220       -0.4378390904
 C          7.8785716341        0.1991341268       -0.7130945473
 C          8.2558180474        1.4879636352       -0.3669800519
 C          7.3585025499        2.3422480298        0.2568391062
 C          6.0722900595        1.9084269300        0.5360591443
 H          5.3435081825        2.5319487694        1.0275628951
 H          7.6561602349        3.3425111741        0.5272352375
 H          9.2565121497        1.8281095573       -0.5817670445
 H          8.5794370794       -0.4636420455       -1.1945387885
 H          6.2582242069       -1.2366381787       -0.6800875476
 H          3.8707660492        0.8612533705       -1.6140958097
 H          2.3195978583        0.4475442551       -3.3138711081
 H          0.1350571815       -0.5190852645       -3.9276339644
 H         -1.3754950000       -1.3884260812       -2.1815946967
 H         -0.4375075592       -1.2797467427        1.4722494432
 C         -1.1220851296       -2.9486115155        0.3314055127
 C          0.0483343406       -3.8426111584        0.6053113017
 C         -1.1282083002       -3.8402699526        1.5341001572
 H         -1.7848622965       -4.6973530775        1.5369657707
 H         -1.0124144204       -3.3749191117        2.5026528982
 H          0.1991846880       -4.7021766150       -0.0296704767
 H          0.9656430597       -3.3779829775        0.9384759069
 H         -1.7775693476       -3.2092992172       -0.4886950592
