  62
        -98.94490817
 C         -1.8649974520       -0.7081763300       -0.1685816977
 C         -2.4096726005       -0.0203716127        0.9416346416
 C         -3.5112566322        0.9055679818        0.6485064984
 C         -3.8982729791        1.0823449739       -0.6282570079
 C         -5.0393604794        1.9540862962       -1.0641906103
 C         -6.3522366646        1.1606261010       -1.1247947304
 C         -6.6357031429        0.3375590991        0.1318783431
 H         -7.6003254048       -0.1537271119       -0.0124080168
 H         -5.8838378371       -0.4500605071        0.2191399648
 C         -6.6671657231        1.1536645593        1.4317019616
 H         -6.7965782092        2.2119326396        1.2018979339
 H         -7.5326415696        0.8419294918        2.0201726532
 C         -5.4361029737        0.9755164090        2.3221025511
 H         -5.2490922977       -0.0897661854        2.4790530379
 H         -5.6556722799        1.4165867480        3.2980800687
 C         -4.1429222874        1.6216316246        1.8092304683
 H         -4.3277565824        2.6692570632        1.5624164638
 H         -3.4090483823        1.5844688626        2.6198705319
 H         -6.3052293974        0.4790421676       -1.9772699881
 H         -7.1711576535        1.8618245806       -1.2954325114
 H         -4.8139078972        2.3434359270       -2.0585149950
 H         -5.1384325811        2.7885409392       -0.3724775236
 O         -3.3146185374        0.4452026349       -1.6747169309
 C         -2.2902646108       -0.4702217912       -1.4759005056
 O         -1.8535519856       -0.9861946687       -2.5208964283
 O         -1.9889839231       -0.1693894133        2.1214719609
 C         -0.7443376960       -1.7054561101        0.0661807660
 C          0.5167060181       -1.2296183995       -0.6119156092
 C          1.2717025347       -2.0120869565       -1.4744265564
 C          2.4158674168       -1.5012299306       -2.0645712295
 C          2.8381277483       -0.2125522399       -1.7985657212
 C          2.1006184563        0.5720464068       -0.9197375406
 C          0.9547096509        0.0601135192       -0.3328109163
 H          0.3791355741        0.6741920616        0.3488901989
 N          2.5392787915        1.8738975693       -0.6195810967
 S          4.1589212331        2.0642829450       -0.2355562463
 O          4.2104950317        3.2151408653        0.6387750723
 O          4.9353167617        2.1612604984       -1.4464038228
 C          4.6044799136        0.5798622024        0.6489253251
 C          5.5610972691       -0.2699181264        0.1324687374
 C          5.8598362522       -1.4374588194        0.8164820765
 C          5.1966525560       -1.7353012312        1.9965181797
 C          4.2409901168       -0.8688055048        2.5051808662
 C          3.9396680495        0.3005720427        1.8265905736
 H          3.2038801785        0.9959627827        2.1984164409
 H          3.7255882295       -1.1010354592        3.4233896756
 H          5.4247150307       -2.6473661991        2.5250378137
 H          6.6039554635       -2.1119570138        0.4248046948
 H          6.0495558223       -0.0010300722       -0.7898132019
 H          1.9495718677        2.3609133837        0.0390849953
 H          3.7190126766        0.2036421045       -2.2598508759
 H          2.9855049197       -2.1161812902       -2.7441729440
 H          0.9596362025       -3.0190383271       -1.6955882789
 H         -0.5685360752       -1.6915668154        1.1521618036
 C         -1.1719090125       -3.0995390151       -0.3390485581
 C         -0.5522361140       -4.2956028733        0.3177478956
 C         -1.9692498950       -3.9205274444        0.6282522635
 H         -2.7656904367       -4.5403474518        0.2444133281
 H         -2.1849028000       -3.4823435543        1.5919922931
 H         -0.3764423801       -5.1781423051       -0.2783204734
 H          0.1959516371       -4.1173959145        1.0749553553
 H         -1.4367323699       -3.1672634480       -1.3880076757
