  62
        -98.94308808
 C         -2.5664549811       -0.1663030982        0.5340780139
 C         -2.2045950484        0.3684424101       -0.7279728755
 C         -1.9788932130        1.8218493176       -0.7693739906
 C         -2.0766468205        2.5405401306        0.3623803805
 C         -1.8369177700        4.0184050057        0.4710222553
 C         -0.3765317066        4.3285314811        0.8244373134
 C          0.6440317767        3.6163891174       -0.0639127416
 H          1.6351155912        3.9613530839        0.2412358374
 H          0.6125920488        2.5411814101        0.1315332239
 C          0.4583393658        3.8581561306       -1.5684240894
 H         -0.1551959837        4.7459031961       -1.7305628668
 H          1.4371093984        4.0522688648       -2.0117633223
 C         -0.1442927651        2.6717165022       -2.3236051744
 H          0.3919241415        1.7604179941       -2.0483356241
 H          0.0039499976        2.8363146170       -3.3945938144
 C         -1.6429385382        2.4311607122       -2.1012537292
 H         -2.1940323330        3.3633368529       -2.2478499815
 H         -1.9777864501        1.7101182659       -2.8528644316
 H         -0.2292354570        5.4083904288        0.7554924122
 H         -0.1975619836        4.0247643255        1.8587587326
 H         -2.1016303677        4.4923828239       -0.4723171811
 H         -2.4819930452        4.4113181564        1.2592602165
 O         -2.3835307652        1.9871506143        1.5649722868
 C         -2.6132382558        0.6268002316        1.6819020222
 O         -2.8530063436        0.2487833452        2.8480949600
 H         -0.2156232620       -1.2206772163        1.1503405799
 C         -0.3555374517       -2.0228725296        0.4383579480
 C         -1.6440222044       -2.4099288889        0.0910283176
 C         -1.8031462933       -3.4451237673       -0.8197816241
 C         -0.6943744248       -4.0544702220       -1.3824430913
 C          0.5848666940       -3.6371559447       -1.0656707894
 C          0.7536994863       -2.6070062669       -0.1469019369
 N          2.0364467681       -2.1502113474        0.2131111440
 S          2.2034696730       -0.4795705074        0.4266713871
 O          1.8125732378       -0.1407901915        1.7738811515
 O          1.5322304613        0.2278169514       -0.6372308867
 C          3.9710132853       -0.3072505006        0.2643070522
 C          4.7711339238       -0.7074003678        1.3180262376
 C          6.1471190433       -0.6049316126        1.1904662240
 C          6.6969540856       -0.1067035403        0.0182895095
 C          5.8811747243        0.2931275115       -1.0292573769
 C          4.5037571621        0.1916283480       -0.9088805376
 H          3.8287612812        0.4952839262       -1.6930391685
 H          6.3108541593        0.6833193036       -1.9377043031
 H          7.7681827588       -0.0269329401       -0.0779562679
 H          6.7843666684       -0.9121428815        2.0038668285
 H          4.2970626888       -1.0783878127        2.2117769352
 H          2.7574748205       -2.5084141910       -0.3994827443
 H          1.4458123392       -4.0968613079       -1.5271514157
 H         -0.8304352137       -4.8533667398       -2.0957326446
 H         -2.7926591719       -3.7564236676       -1.1117038899
 C         -2.7820073319       -1.6578663555        0.7371996267
 H         -2.6975968633       -1.8048607590        1.8277632739
 C         -4.1595964611       -2.1658092032        0.3397050491
 C         -5.3425003840       -1.2455015993        0.3091750174
 C         -4.8019075920       -1.8132369355       -0.9669446958
 H         -5.3808745845       -2.5724220546       -1.4724617694
 H         -4.2538397927       -1.1639746183       -1.6304146080
 H         -6.2873112748       -1.6133036370        0.6805045299
 H         -5.1664170784       -0.2003353444        0.5201828460
 H         -4.3441767494       -3.1665710684        0.7185286550
 O         -2.0918687247       -0.3180121193       -1.7762728054
