  62
        -98.93413727
 C         -2.2376493808       -1.0976211477       -0.3690257236
 C         -3.5473736169       -1.0988500536        0.1687410057
 C         -4.4365967769       -0.0043888127       -0.2541185606
 C         -3.9702989933        0.9167646298       -1.1147979000
 C         -4.6854372887        2.1397940408       -1.6185813275
 C         -4.3373876147        3.3629256873       -0.7533761485
 C         -5.2168686126        3.5488565882        0.4827763023
 H         -4.7796712373        4.3578545100        1.0724697032
 H         -6.2114502412        3.8723784245        0.1688437277
 C         -5.3640334375        2.3138097736        1.3757395281
 H         -4.3943102560        1.8257056895        1.4910173223
 H         -5.6741055053        2.6530155067        2.3660543721
 C         -6.3989943036        1.3080774788        0.8494664598
 H         -7.0962863920        1.0560216707        1.6509089753
 H         -6.9878086589        1.7832284429        0.0650777463
 C         -5.8231554693       -0.0185954747        0.3295879268
 H         -6.5101253344       -0.4401616307       -0.4113461456
 H         -5.7686891223       -0.7390911081        1.1514326221
 H         -3.2901979388        3.2712052695       -0.4522765269
 H         -4.4217721232        4.2620624355       -1.3672170718
 H         -5.7579274916        1.9729322722       -1.6519920425
 H         -4.3229264979        2.3171877134       -2.6332099232
 O         -2.7056966211        0.8772817641       -1.6174509379
 C         -1.8035674685       -0.1103241118       -1.2536040362
 O         -0.6851024708        0.0038750882       -1.7901896719
 O         -3.9562120582       -1.9756520562        0.9772206355
 C         -1.2779664799       -2.1856798407        0.0855838076
 C         -0.2689887215       -1.5613372622        1.0187088875
 C         -0.6677433855       -1.2636553206        2.3203431182
 C          0.2018620506       -0.6550263850        3.2036434776
 C          1.4845329856       -0.3239511835        2.8032316791
 C          1.8930496512       -0.6159644808        1.5072926295
 C          1.0198320801       -1.2373153109        0.6235068778
 H          1.3514793257       -1.4341752015       -0.3818318330
 N          3.2079296916       -0.3203455660        1.0984344523
 S          3.4501542434        0.3714879867       -0.4262800073
 O          2.6293401057        1.5531122052       -0.5701911434
 O          3.3228285473       -0.6499853298       -1.4328931956
 C          5.1659037345        0.8397229267       -0.2718440448
 C          6.1346663977       -0.1320101572       -0.4367208445
 C          7.4672954880        0.2180993238       -0.2889563741
 C          7.8080402335        1.5266838624        0.0200439227
 C          6.8253443967        2.4917155162        0.1805513033
 C          5.4905063592        2.1474210417        0.0352022772
 H          4.6926536496        2.8650006549        0.1412571971
 H          7.0925997909        3.5090226220        0.4172363041
 H          8.8459849416        1.7968546525        0.1336025912
 H          8.2341550104       -0.5288767800       -0.4158359689
 H          5.8219534485       -1.1327096703       -0.6848729445
 H          3.7011884449        0.2238809681        1.7952706542
 H          2.1658640830        0.1560054129        3.4898035367
 H         -0.1206334357       -0.4310238913        4.2093266070
 H         -1.6760065527       -1.5101736077        2.6232092262
 H         -1.8923820493       -2.8822558169        0.6736215592
 C         -0.6628919192       -2.9428590471       -1.0702531238
 C         -0.0376366400       -4.2805839097       -0.8149627301
 C         -1.3315578552       -4.1890111133       -1.5651053851
 H         -1.3294917903       -4.3862838671       -2.6266064038
 H         -2.2358437856       -4.5023053099       -1.0639704795
 H          0.8575078637       -4.5404832315       -1.3590171823
 H         -0.0639943577       -4.6564364349        0.1967394429
 H         -0.2010779071       -2.3008094391       -1.8108072346
