  62
        -98.94431511
 C         -1.8390661855       -0.7699188841        0.2817969255
 C         -2.3392875002        0.5448866298        0.1245030564
 C         -3.7750802230        0.7172781131        0.3915979649
 C         -4.5067735347       -0.3428029716        0.7807239817
 C         -5.9866986040       -0.3192907571        1.0287704919
 C         -6.7682901914       -0.6693926165       -0.2453172551
 C         -6.3243323929        0.1172456458       -1.4786508092
 H         -5.3027361134       -0.1707980528       -1.7371198085
 H         -6.9643002609       -0.1904137365       -2.3084945280
 C         -6.3939887951        1.6423177311       -1.3179445518
 H         -6.8463608472        2.0688993863       -2.2157399474
 H         -7.0403447477        1.8974289014       -0.4773951687
 C         -5.0362379867        2.3238872014       -1.1371384112
 H         -5.1785525589        3.4018395067       -1.2521355034
 H         -4.3544092825        1.9990401441       -1.9273366906
 C         -4.3493456270        2.0946637527        0.2151893597
 H         -3.5002123981        2.7818935039        0.2774739618
 H         -5.0428250335        2.3313395759        1.0247330160
 H         -6.6343372556       -1.7336384777       -0.4521519032
 H         -7.8288574054       -0.4901149975       -0.0598815650
 H         -6.2181683264       -1.0559234096        1.7999076911
 H         -6.2747030659        0.6678971032        1.3847309771
 O         -3.9829436772       -1.5838468086        0.9488418904
 C         -2.6438602407       -1.8314594886        0.6949835128
 O         -2.2940193549       -3.0146816240        0.8792255011
 H          1.7574414059        0.5587811026       -0.7303359236
 C          1.5480799941        0.5641566510        0.3260388747
 C          0.5053732252       -0.1853099635        0.8466912954
 C          0.2669376200       -0.1351879468        2.2186368360
 C          1.0336980979        0.6652661512        3.0413537282
 C          2.0659601567        1.4236079948        2.5165215990
 C          2.3194496414        1.3729507582        1.1518565938
 N          3.3560156874        2.1335900217        0.5950447385
 S          4.2465987884        1.5565547212       -0.6886586999
 O          5.4932980690        2.2892769467       -0.6174569279
 O          3.5147330834        1.6901932707       -1.9228672313
 C          4.5393559835       -0.1697021025       -0.3394461807
 C          4.3423201998       -1.1009591120       -1.3376060532
 C          4.5843692368       -2.4387145165       -1.0683454915
 C          5.0156680178       -2.8208182609        0.1920143980
 C          5.2144885276       -1.8727233547        1.1840878891
 C          4.9781209776       -0.5338796054        0.9184251390
 H          5.1319398039        0.2223658572        1.6705014967
 H          5.5514085268       -2.1729649791        2.1631731348
 H          5.1986350098       -3.8628741028        0.4019486200
 H          4.4326173042       -3.1754319818       -1.8411068413
 H          3.9994801380       -0.7613171274       -2.3013256667
 H          3.9201337097        2.6473653318        1.2548555211
 H          2.6611023795        2.0583060531        3.1552337605
 H          0.8289641347        0.7000699613        4.1007625522
 H         -0.5416478818       -0.7260307973        2.6275707968
 C         -0.3769235967       -1.0624040387       -0.0064979354
 H         -0.2114926022       -2.1077747107        0.2927907348
 C         -0.1132129014       -0.9343410209       -1.4919968454
 C          0.9560632249       -1.7549932706       -2.1449752291
 C         -0.4875248173       -2.0730979932       -2.3908634238
 H         -0.9097972927       -1.8497843245       -3.3592608672
 H         -0.9059113395       -2.9533234255       -1.9243487606
 H          1.5243955683       -2.4248044500       -1.5176854886
 H          1.5243541419       -1.3079248832       -2.9466933534
 H         -0.2833602690        0.0707854400       -1.8620575118
 O         -1.6279440964        1.5244375670       -0.2208307741
