  62
        -98.94515119
 C         -2.2651809291       -0.7520111959       -0.0019455513
 C         -3.2701730464       -0.6667410255        0.9944421228
 C         -4.1328842137        0.5200267586        0.9436917652
 C         -3.9026649760        1.4590197844        0.0078860275
 C         -4.7264401132        2.6988512304       -0.1830027932
 C         -5.8660402278        2.4619171098       -1.1839436799
 C         -6.6843394399        1.2019513618       -0.9013411783
 H         -7.4769806436        1.1546122879       -1.6511628473
 H         -6.0497075388        0.3251053390       -1.0486122668
 C         -7.3039483418        1.1486076538        0.5020975873
 H         -7.3197864130        2.1480528300        0.9381374602
 H         -8.3405503616        0.8166489984        0.4143740487
 C         -6.6082640414        0.1860284163        1.4663363709
 H         -6.5056641794       -0.7942723289        0.9943243230
 H         -7.2488626969        0.0616743849        2.3433757686
 C         -5.2272888457        0.6262746021        1.9684015652
 H         -5.2862116302        1.6417800337        2.3652334704
 H         -4.9399337203       -0.0449321701        2.7829034856
 H         -5.4349896336        2.3736394025       -2.1839467003
 H         -6.5215486335        3.3346091610       -1.1726633838
 H         -4.0757779743        3.4872386686       -0.5654836634
 H         -5.1315632416        3.0104190096        0.7778433199
 O         -2.9082861595        1.3603063621       -0.9103658709
 C         -2.0707240125        0.2544439222       -0.9480252505
 O         -1.2211180598        0.2951377898       -1.8594091016
 O         -3.4367131528       -1.5437434801        1.8831964556
 C         -1.3446358974       -1.9619975441        0.0143429252
 C          0.0327456153       -1.4915840718        0.4096007813
 C          0.3068138585       -1.2542871242        1.7541275801
 C          1.5329409698       -0.7524487507        2.1463047375
 C          2.5085803547       -0.4664365822        1.2064775763
 C          2.2384628922       -0.6831184069       -0.1372571802
 C          1.0140304497       -1.2104467109       -0.5274125349
 H          0.8147509201       -1.3623585880       -1.5762861408
 N          3.2175437592       -0.3840634891       -1.1005559727
 S          4.0084234029        1.0928763482       -0.9946185935
 O          3.1880028291        2.1039987520       -0.3684562660
 O          4.4651562227        1.3742439124       -2.3385491519
 C          5.4240270730        0.7357210628        0.0276753200
 C          5.7053920440        1.5367698839        1.1170118237
 C          6.8191094331        1.2496876397        1.8911229335
 C          7.6282245021        0.1727511316        1.5632776766
 C          7.3335885687       -0.6205936056        0.4643820506
 C          6.2227763253       -0.3380778670       -0.3143253365
 H          5.9606234278       -0.9280246904       -1.1764866347
 H          7.9647810089       -1.4575961075        0.2128636914
 H          8.4933153943       -0.0494518143        2.1678634254
 H          7.0493277523        1.8659774026        2.7453487365
 H          5.0434662212        2.3592201498        1.3376778943
 H          2.9076199855       -0.5494963359       -2.0477786952
 H          3.4621767655       -0.0613012218        1.5031430100
 H          1.7322338007       -0.5771124715        3.1925894894
 H         -0.4633611863       -1.4555465560        2.4857194158
 H         -1.7286519614       -2.6070481011        0.8160270206
 C         -1.3858166760       -2.7289783805       -1.2902497371
 C         -0.8210613236       -4.1162842818       -1.3427279524
 C         -2.3028003401       -3.9069162354       -1.4175944035
 H         -2.8011948621       -4.0709505215       -2.3613262185
 H         -2.9009259080       -4.1692384145       -0.5573306593
 H         -0.3000436774       -4.4281414442       -2.2349733516
 H         -0.4113983366       -4.5197053563       -0.4292594376
 H         -1.2693883270       -2.0986639155       -2.1637363301
