  62
        -98.94495368
 C         -1.8762658597       -0.7405462893       -0.1597913019
 C         -2.4295367297       -0.0903300806        0.9685179588
 C         -3.4927165697        0.8847038298        0.6927287499
 C         -3.8415798495        1.1327255413       -0.5831823799
 C         -4.9384652894        2.0662083418       -1.0046420789
 C         -6.2780512495        1.3276987021       -1.1337117299
 C         -6.6235403796        0.4584768707        0.0754566991
 H         -7.6018932696        0.0119414209       -0.1145327716
 H         -5.9039743897       -0.3606620894        0.1426142582
 C         -6.6573445697        1.2135201391        1.4116300399
 H         -6.7425263997        2.2855001393        1.2296713912
 H         -7.5478780498        0.9071163285        1.9644357895
 C         -5.4560607098        0.9478917780        2.3207819297
 H         -5.3112818099       -0.1298236821        2.4304041685
 H         -5.6841115199        1.3499212069        3.3115530502
 C         -4.1279926497        1.5692896985        1.8703149406
 H         -4.2690735197        2.6333429387        1.6689189318
 H         -3.4168329598        1.4676250375        2.6955828305
 H         -7.0655585694        2.0672038623       -1.2899945391
 H         -6.2350901494        0.6853858231       -2.0163325406
 H         -5.0240649195        2.8709504010       -0.2768272880
 H         -4.6732828393        2.4923123730       -1.9738027684
 O         -3.2555553394        0.5221821625       -1.6442944505
 C         -2.2646116695       -0.4330283177       -1.4641120315
 O         -1.8195497794       -0.9168536765       -2.5210117721
 H          0.3268116404        0.6231320701        0.2763087199
 C          0.9261992804       -0.0197233492       -0.3566662507
 C          0.4973436304       -1.3198529889       -0.5978459323
 C          1.2850494104       -2.1374582980       -1.3967471732
 C          2.4515290705       -1.6513861174       -1.9632796325
 C          2.8620767305       -0.3507446977       -1.7401746809
 C          2.0911411305        0.4700721614       -0.9256339501
 N          2.5063590105        1.7890107211       -0.6769101185
 S          4.1196436505        2.0507717606       -0.3181282480
 O          4.1376483905        3.2509102697        0.4886506934
 O          4.8864358806        2.1025473920       -1.5379734079
 C          4.6204627103        0.6372155995        0.6487347504
 C          5.6234018103       -0.1921538700        0.1901353795
 C          5.9725712102       -1.3016026109        0.9435466783
 C          5.3127705701       -1.5630903023        2.1340483279
 C          4.3092415001       -0.7181242627        2.5833411988
 C          3.9577243502        0.3935939782        1.8354967000
 H          3.1843847802        1.0715188178        2.1603838407
 H          3.7962079600       -0.9223467338        3.5094984185
 H          5.5810712500       -2.4296782829        2.7173385269
 H          6.7536549602       -1.9592666405        0.5979184276
 H          6.1076660904        0.0470469810       -0.7425276502
 H          1.9015522805        2.2998862104       -0.0513438980
 H          3.7569300906        0.0471210528       -2.1904119804
 H          3.0472592805       -2.2945916667       -2.5925032932
 H          0.9816856004       -3.1536231077       -1.5859913444
 C         -0.7863755497       -1.7756004596        0.0518734270
 H         -0.6226080098       -1.8054783408        1.1396425470
 C         -1.2509926597       -3.1413306790       -0.4073140746
 C         -0.7053475599       -4.3800008098        0.2362645540
 C         -2.1165438299       -3.9550523200        0.5060838244
 H         -2.9226195798       -4.5303524095        0.0758662736
 H         -2.3498875699       -3.5347095911        1.4736288349
 H         -0.5437147898       -5.2523419291       -0.3787224970
 H          0.0201198001       -4.2547390407        1.0255419743
 H         -1.4781662396       -3.1688440078       -1.4670149946
 O         -2.0452718499       -0.3088822519        2.1498942586
