  62
        -98.95138121
 C         -1.8068621661       -1.2759909530       -0.2848630273
 C         -2.9080072113       -0.6115141339        0.3020735431
 C         -3.2467383887        0.6933692491       -0.2742487364
 C         -2.5323141739        1.1722626067       -1.3092204921
 C         -2.7425756609        2.4962847941       -1.9912399070
 C         -2.0469647103        3.6615575305       -1.2736703940
 C         -2.7240924040        4.1223106695        0.0178273361
 H         -3.7869638832        4.2875398818       -0.1648559455
 H         -2.2832248882        5.0850352869        0.2844974515
 C         -2.5432136455        3.1583281348        1.1987866839
 H         -2.2751480490        3.7267032857        2.0932417866
 H         -1.7042011909        2.4882939321        0.9925362405
 C         -3.7840683572        2.3332376962        1.5431339088
 H         -4.5773162003        2.9975160805        1.8947742239
 H         -3.5257534024        1.6550599410        2.3608176748
 C         -4.3320771913        1.4909236342        0.3838159572
 H         -4.8291897429        2.1316467978       -0.3441244901
 H         -5.0631103239        0.7867345248        0.7895281210
 H         -2.0168118777        4.5053616099       -1.9673773333
 H         -1.0169828862        3.3690766015       -1.0520548121
 H         -3.8091911657        2.7038630081       -2.0826724089
 H         -2.3167531644        2.4033746185       -2.9926113500
 O         -1.5132083538        0.4795080071       -1.8788509602
 C         -1.0918848757       -0.7276877296       -1.3489657615
 O         -0.0955005785       -1.2190005115       -1.9159962285
 O         -3.5673270780       -1.0822910930        1.2696545974
 C         -1.3106331540       -2.5740135584        0.3246526222
 C          0.1251404973       -2.4084234164        0.7612924497
 C          1.0867569836       -3.4022340373        0.6261680520
 C          2.3958382696       -3.1716519943        1.0141919122
 C          2.7806521739       -1.9415774114        1.5158154876
 C          1.8233644810       -0.9452625642        1.6640575550
 C          0.5059324419       -1.1958743578        1.3219551997
 H         -0.2228289624       -0.4089713762        1.4514692564
 N          2.1553302589        0.3478822512        2.1262722917
 S          2.0150599940        1.5697872579        0.9810190432
 O          2.4805174799        2.7677603196        1.6474623800
 O          0.6735412073        1.6099366862        0.4630366474
 C          3.1901305327        1.0992239789       -0.2759072270
 C          4.4702843397        1.6148957944       -0.1970119577
 C          5.4234820582        1.1912878296       -1.1080192473
 C          5.0847770798        0.2524145796       -2.0713045671
 C          3.7974223874       -0.2571404836       -2.1339494457
 C          2.8351468779        0.1651935646       -1.2281734132
 H          1.8261233372       -0.2167472019       -1.2664426659
 H          3.5253253707       -0.9864140633       -2.8800332424
 H          5.8268866005       -0.0835905633       -2.7782445552
 H          6.4243141243        1.5894525788       -1.0620667385
 H          4.6850562841        2.3437422517        0.5680305712
 H          3.0738069595        0.4031640418        2.5464532179
 H          3.8081888407       -1.7499832603        1.7864556727
 H          3.1310347343       -3.9536854176        0.9020589856
 H          0.8121035259       -4.3569261990        0.2079568206
 H         -1.9319531468       -2.7370016998        1.2185013825
 C         -1.5158184471       -3.7315617647       -0.6306167008
 C         -1.7951567578       -5.1084481696       -0.1080873577
 C         -2.8866529333       -4.3211351590       -0.7664440181
 H         -3.2242326309       -4.6211763836       -1.7470223728
 H         -3.6663913819       -3.9047439901       -0.1454134571
 H         -1.3853868933       -5.9543835895       -0.6391022650
 H         -1.8421560293       -5.2377952804        0.9626525122
 H         -0.9213347050       -3.6339332611       -1.5321049890
