  62
        -98.93879792
 C         -1.8641161348       -0.6761739552        0.2856003530
 C         -2.2108137848        0.5964979200       -0.2383156242
 C         -3.5942653935        0.7623378302       -0.7004745786
 C         -4.4377990427       -0.2827779913       -0.6262451314
 C         -5.8875231951       -0.2460041671       -1.0127917371
 C         -6.7731302084        0.1240612133        0.1851666426
 C         -6.2944830368        1.3590450309        0.9484298524
 H         -7.0112627388        1.5429134757        1.7517633285
 H         -5.3342279073        1.1365510135        1.4193613981
 C         -6.1550498154        2.6225279117        0.0877782474
 H         -6.7163558731        2.5027323891       -0.8395533772
 H         -6.5959498345        3.4636674703        0.6269538409
 C         -4.7119243969        3.0103048228       -0.2401182938
 H         -4.7181959690        4.0209751574       -0.6568346126
 H         -4.1224824434        3.0393330730        0.6796821927
 C         -3.9896238628        2.1055486799       -1.2464594394
 H         -3.0554471868        2.6001106528       -1.5278304245
 H         -4.6017504023        1.9911634741       -2.1434688848
 H         -7.7903737041        0.2881418530       -0.1751058458
 H         -6.7899447033       -0.7210605077        0.8773019177
 H         -6.0250931941        0.4750786061       -1.8162313383
 H         -6.1729597472       -1.2361564577       -1.3721363238
 O         -4.0683712733       -1.4932000901       -0.1409178062
 C         -2.7799867218       -1.7286604844        0.3311397856
 O         -2.6094818308       -2.8895304751        0.7433554467
 O         -1.3949955362        1.5549708874       -0.3074454677
 C         -0.4388206248       -0.8314263926        0.7819666511
 C          0.4851994272       -1.3488427268       -0.2904969651
 C          0.1279200056       -2.4034992460       -1.1236375036
 C          1.0142053784       -2.8715949202       -2.0768848187
 C          2.2770926177       -2.3190989975       -2.1990895356
 C          2.6448138763       -1.2661635139       -1.3700611397
 C          1.7394266149       -0.7756317951       -0.4398072054
 H          2.0202957491        0.0602768184        0.1815236302
 N          3.9150909826       -0.6820742658       -1.4600153862
 S          4.7133081888       -0.2217064698       -0.0597487828
 O          6.1145764767       -0.2365574171       -0.4196575858
 O          4.3311020373       -1.0485376435        1.0600199262
 C          4.2018144700        1.4619777085        0.2043286209
 C          4.4098071314        2.3727411520       -0.8124961092
 C          4.0257390486        3.6896961363       -0.6198761954
 C          3.4442013568        4.0716528274        0.5797997502
 C          3.2456822193        3.1461005148        1.5924229060
 C          3.6285448501        1.8271656650        1.4060116562
 H          3.4875829787        1.0753221359        2.1671862018
 H          2.7915782298        3.4441538589        2.5239186271
 H          3.1426646211        5.0966500854        0.7274310932
 H          4.1776993485        4.4134734514       -1.4043582082
 H          4.8677857479        2.0381226297       -1.7283045870
 H          4.5382546196       -1.1158245931       -2.1253243397
 H          2.9729847283       -2.6992658461       -2.9315177244
 H          0.7241614435       -3.6882286544       -2.7209984306
 H         -0.8440085941       -2.8595208540       -1.0098207778
 H         -0.1132774577        0.1945617034        1.0188780512
 C         -0.3290926244       -1.6422724885        2.0661978232
 C          0.1841534254       -3.0462864967        2.1175656016
 C          1.0108273989       -1.9300828035        2.6780861373
 H          1.1115964756       -1.8531099566        3.7505749944
 H          1.8983058917       -1.6417192042        2.1325747111
 H         -0.3009236004       -3.7332022109        2.7940823549
 H          0.5047827505       -3.5044316259        1.1952069314
 H         -1.1329560596       -1.4053806440        2.7568566431
