  62
        -98.93319084
 C         -2.2910950810       -0.6938935671       -0.1076247572
 C         -3.4658174769       -1.0619434238        0.5895408269
 C         -4.7282381857       -0.5242613653        0.0613327583
 C         -4.6984504943        0.2570392038       -1.0339579207
 C         -5.8864511295        0.9440702047       -1.6455930280
 C         -6.2609216746        2.1882168289       -0.8147945616
 C         -7.6257597914        2.1022095504       -0.1312687669
 H         -7.6847856866        2.9241661325        0.5853101700
 H         -8.4070770913        2.2591086202       -0.8778380778
 C         -7.9278021372        0.7867975615        0.5930545478
 H         -8.7905540072        0.9693810961        1.2372152289
 H         -8.2349958380        0.0308800338       -0.1310914794
 C         -6.7889253792        0.2140049529        1.4465259722
 H         -7.2234730751       -0.2014517581        2.3580254748
 H         -6.1030761608        1.0038510546        1.7536589658
 C         -5.9919775209       -0.9198420203        0.7744062394
 H         -5.6668850637       -1.6232456746        1.5467391625
 H         -6.6432365873       -1.4661029177        0.0865750850
 H         -6.2550469664        3.0699145500       -1.4573330624
 H         -5.4843755622        2.3433830786       -0.0628620261
 H         -6.7241165937        0.2522309589       -1.6982072851
 H         -5.6074585424        1.2334950767       -2.6588130153
 O         -3.5485132750        0.5823822647       -1.6807955269
 C         -2.3173308346        0.1224497666       -1.2375999614
 O         -1.3495698157        0.5030649557       -1.9228835406
 O         -3.4578708989       -1.8029789289        1.6098953882
 C         -0.9528845291       -1.2120309221        0.3848899627
 C         -0.0255202422       -0.0656513856        0.7040379202
 C         -0.4859989674        0.9673796052        1.5176534806
 C          0.3340374439        2.0291844293        1.8445236511
 C          1.6379780430        2.0770540723        1.3827656783
 C          2.1079335519        1.0517991831        0.5719183411
 C          1.2774011293       -0.0096229224        0.2373739605
 H          1.6711810942       -0.7889132668       -0.3930163934
 N          3.4186269960        1.0785212382        0.0697166425
 S          4.2477556861       -0.3835557042       -0.0874805653
 O          3.9052724052       -0.9872503517       -1.3503910147
 O          4.0403081596       -1.1978510851        1.0886803593
 C          5.9308823855        0.2052290004       -0.1387099746
 C          6.4431933123        0.6578364354       -1.3399741967
 C          7.7404143991        1.1443767213       -1.3738163900
 C          8.4992091117        1.1709800931       -0.2129940801
 C          7.9723322986        0.7114493449        0.9846975836
 C          6.6753663095        0.2244753407        1.0258148434
 H          6.2271725073       -0.1520028544        1.9312565674
 H          8.5660045388        0.7298611739        1.8843941527
 H          9.5087148353        1.5495000442       -0.2427427401
 H          8.1545937045        1.4994379172       -2.3036737708
 H          5.8192577531        0.6094098612       -2.2173156032
 H          3.9910053755        1.7927297096        0.4984652471
 H          2.2814147759        2.9043628742        1.6411449237
 H         -0.0404179583        2.8235534238        2.4727696692
 H         -1.5015327253        0.9246956954        1.8881080131
 H         -1.1711375803       -1.7428650421        1.3242767122
 C         -0.3718387081       -2.2005833323       -0.6036562680
 C          0.5753824422       -3.2640531097       -0.1371618832
 C         -0.8154066615       -3.6307419847       -0.5573797835
 H         -0.9510181498       -4.1587125354       -1.4892758867
 H         -1.5258140502       -3.9043298912        0.2090034080
 H          1.4019868529       -3.5330963730       -0.7782888958
 H          0.8166838813       -3.2908566546        0.9150737513
 H         -0.2004694359       -1.7608043646       -1.5806330935
