  62
        -98.94382978
 C         -1.8623422440       -1.1808690357       -0.3890189319
 C         -1.8820348766        0.0308926562        0.3432593311
 C         -3.1771475113        0.3976124357        0.9349022778
 C         -4.2329164489       -0.4207809873        0.7743433011
 C         -5.6189476806       -0.1396994945        1.2764130815
 C         -6.4532761184        0.5981630891        0.2198096676
 C         -5.7466857236        1.8074096622       -0.3930000314
 H         -4.8831131694        1.4623869180       -0.9660510466
 H         -6.4410731255        2.2636864184       -1.1018737621
 C         -5.2905324485        2.8612674441        0.6258661261
 H         -5.5547128824        3.8510400638        0.2474129864
 H         -5.8242038449        2.7221800154        1.5668142278
 C         -3.7845268067        2.8738562653        0.8944923989
 H         -3.5461841960        3.7843431355        1.4507386083
 H         -3.2450443106        2.9183713020       -0.0547589976
 C         -3.2431336435        1.6878177032        1.7026647297
 H         -3.8304374101        1.5656317335        2.6150230573
 H         -2.2126162135        1.9197341198        1.9878134354
 H         -7.3901625042        0.9164025090        0.6807678740
 H         -6.6913630962       -0.1025042686       -0.5839579549
 H         -6.1012301430       -1.0910493939        1.5078656926
 H         -5.5571953618        0.4547764032        2.1859781891
 O         -4.1674664919       -1.5899559994        0.0866911730
 C         -2.9882150688       -1.9930440946       -0.5195136548
 O         -3.0665263465       -3.0789621108       -1.1300532500
 O         -0.8757246029        0.7680831224        0.4964500933
 C         -0.5846308195       -1.6317220486       -1.0702759876
 C          0.5482006773       -1.7732304680       -0.0818576464
 C          0.2961360609       -2.2167607920        1.2127885028
 C          1.3183510671       -2.3363662262        2.1355941707
 C          2.6222674806       -2.0334037334        1.7844195877
 C          2.8898574980       -1.6168944745        0.4888543305
 C          1.8599345322       -1.4889700595       -0.4350050260
 H          2.0881369652       -1.1571765900       -1.4364850263
 N          4.2240699336       -1.3094174768        0.1338802633
 S          4.8218068571        0.1345978213        0.7436210372
 O          6.1864281203        0.2272051425        0.2763787159
 O          4.6277270566        0.1489055165        2.1699718498
 C          3.8277749961        1.3859312319       -0.0475168905
 C          4.3402842887        2.0599245488       -1.1392903195
 C          3.5309525369        2.9625922475       -1.8093229302
 C          2.2227125002        3.1590848428       -1.3914522979
 C          1.7215316582        2.4713272221       -0.2971309636
 C          2.5312041923        1.5773863039        0.3857377974
 H          2.1590904607        1.0307924747        1.2369948705
 H          0.6982171123        2.5905748475        0.0208887407
 H          1.5875319711        3.8510878144       -1.9224011344
 H          3.9171349427        3.5024515270       -2.6591420137
 H          5.3594407675        1.8682295458       -1.4345129510
 H          4.3840374735       -1.3291933809       -0.8645167600
 H          3.4289370459       -2.0991158984        2.4958529478
 H          1.0979126109       -2.6688363957        3.1389650621
 H         -0.7200741690       -2.4565565729        1.4952087056
 H         -0.7979513366       -2.6268421609       -1.4886107110
 C         -0.2523118507       -0.6830721335       -2.2068449895
 C          0.3792780282       -1.1888408688       -3.4683059580
 C         -1.0561643395       -0.7587203638       -3.4686856303
 H         -1.3219852162        0.1602008924       -3.9690494856
 H         -1.8195877861       -1.5216943898       -3.5228005991
 H          1.0990918642       -0.5610631827       -3.9723670992
 H          0.5871532111       -2.2461826247       -3.5381682484
 H          0.0319862901        0.3013073584       -1.8519700064
