  62
        -98.93896067
 C         -2.0429216156        0.4871747854        0.2334041108
 C         -3.0542446039        0.8500009369       -0.6889872810
 C         -4.2512291808       -0.0069340154       -0.7382152351
 C         -4.3230215979       -1.0841500450        0.0657865292
 C         -5.3821277536       -2.1579633317        0.2052479728
 C         -6.7614792039       -1.9817839376       -0.4240375995
 C         -7.6188795199       -0.8885558542        0.2134131543
 H         -8.5283116920       -0.7767570017       -0.3808966134
 H         -7.9135707259       -1.2182660870        1.2129482393
 C         -6.9483773929        0.4752114984        0.3583302595
 H         -6.0858003681        0.3908810521        1.0224466992
 H         -7.6616735199        1.1485542500        0.8414024716
 C         -6.5061133822        1.1283167079       -0.9494151935
 H         -6.1891894002        2.1485513224       -0.7170510031
 H         -7.3536923739        1.1898589214       -1.6347427774
 C         -5.3396540654        0.4351505487       -1.6738275621
 H         -5.6891246320       -0.3982226542       -2.2785176107
 H         -4.8833953080        1.1625407088       -2.3515469203
 H         -6.6689407442       -1.8207582673       -1.4940400907
 H         -7.2870832088       -2.9315460747       -0.2921857410
 H         -4.9308326292       -3.0710717808       -0.1987441813
 H         -5.4983449743       -2.3241841279        1.2810818591
 O         -3.3123054218       -1.4064912771        0.9245189418
 C         -2.1610564195       -0.6436445704        1.0388569059
 O         -1.3530512360       -1.0763884082        1.8828605438
 O         -2.9610108285        1.8515668863       -1.4474997263
 C         -0.7939929074        1.3512599570        0.2993266987
 C          0.3519904065        0.5787935437       -0.3055782438
 C          0.5342598395        0.6005833714       -1.6856144250
 C          1.5419630234       -0.1379156017       -2.2773757886
 C          2.3871059110       -0.9169227851       -1.5066183868
 C          2.2123613321       -0.9460068592       -0.1292242205
 C          1.2102536948       -0.1899114830        0.4657859452
 H          1.0736604532       -0.2374392069        1.5343882919
 N          3.0583041372       -1.7408571486        0.6592943524
 S          4.6960039746       -1.7458229521        0.3337985410
 O          4.9699553795       -2.6153225735       -0.7838368000
 O          5.3305399488       -2.1053719476        1.5824833161
 C          5.0904377722       -0.0615084579       -0.1043079678
 C          5.5726890051        0.2294588412       -1.3639533860
 C          5.8438596186        1.5488549633       -1.6899463561
 C          5.6263200309        2.5492798358       -0.7557502764
 C          5.1448943792        2.2404798626        0.5075127084
 C          4.8723107952        0.9234271379        0.8387454313
 H          4.5024422600        0.6490245798        1.8135950986
 H          4.9783329476        3.0203712128        1.2330691446
 H          5.8338648738        3.5762898534       -1.0117366805
 H          6.2201818440        1.7914562702       -2.6706863729
 H          5.7269753369       -0.5790027052       -2.0598780517
 H          2.8635482777       -1.6985073437        1.6480540877
 H          3.1647426894       -1.5159649459       -1.9518756019
 H          1.6695517534       -0.1122316389       -3.3488470962
 H         -0.1367255684        1.1942469782       -2.2902443349
 H         -1.0042336145        2.2097652528       -0.3522848082
 C         -0.5179649068        1.8594796031        1.6988691953
 C          0.4563534930        2.9822095070        1.8893544039
 C         -1.0092543447        3.2189284781        2.0926569766
 H         -1.3759918640        3.3618263796        3.0982043828
 H         -1.5432456004        3.7923057882        1.3491835197
 H          1.0980999179        2.9666219194        2.7568527448
 H          0.9177134963        3.3938924255        1.0047204574
 H         -0.5557739457        1.0852502869        2.4551461680
