  62
        -98.94717771
 C          1.6094334967        1.5683471242       -0.2457270434
 C          2.7687459618        1.2274382074        0.4978608536
 C          3.5516193314        0.0967495865       -0.0104686210
 C          3.1602007725       -0.5351281547       -1.1316892297
 C          3.8680272826       -1.6875200993       -1.7919306616
 C          3.5213790889       -3.0630541575       -1.2055611925
 C          4.0898232564       -3.3408803499        0.1863541538
 H          3.9439858187       -4.4045196376        0.3852463916
 H          5.1647370199       -3.1574808794        0.1812449803
 C          3.4330414994       -2.5309399396        1.3133061968
 H          3.2056446062       -3.1915303913        2.1527860819
 H          2.4839377286       -2.1173614969        0.9644416527
 C          4.2965622052       -1.3921517921        1.8562663965
 H          5.1934371377       -1.8022256496        2.3258738526
 H          3.7252350496       -0.8650881613        2.6245691173
 C          4.7251578471       -0.3666694615        0.7980154656
 H          5.1420669113        0.5034351768        1.3109412670
 H          5.4921502187       -0.7909599264        0.1504162293
 H          3.9148674736       -3.8163945239       -1.8920573164
 H          2.4352332294       -3.1710436612       -1.1827571089
 H          4.9458052893       -1.5306030225       -1.7388630854
 H          3.5683669420       -1.6764199041       -2.8423558937
 O          2.0529578924       -0.1660958944       -1.8273992356
 C          1.2358084240        0.8698163802       -1.3934817250
 O          0.2401740059        1.0573128021       -2.1190364612
 O          3.1314909576        1.8424567284        1.5347609479
 C          0.7298723211        2.6872080922        0.2906990405
 C         -0.5181873798        2.0389594979        0.8353532483
 C         -0.5115659727        1.5127825980        2.1243841150
 C         -1.6026368595        0.8161657803        2.6098742189
 C         -2.7136329378        0.6067732079        1.8110740102
 C         -2.7218529449        1.1163999146        0.5196972897
 C         -1.6421034261        1.8485518846        0.0463418824
 H         -1.6605008539        2.2277000472       -0.9628265429
 N         -3.8184092831        0.8459662286       -0.3213144975
 S         -4.2901301552       -0.7601202782       -0.3986064887
 O         -4.8156957239       -0.9472750679       -1.7331402853
 O         -5.2135750190       -1.0353806582        0.6753242886
 C         -2.8061611745       -1.7273715714       -0.1633941116
 C         -2.7689514947       -2.6743364171        0.8405459831
 C         -1.6137377925       -3.4167290879        1.0229825597
 C         -0.5170074589       -3.1995843583        0.2032580579
 C         -0.5718218302       -2.2474048539       -0.8022931267
 C         -1.7246416445       -1.5026962884       -0.9912789937
 H         -1.7679118238       -0.7493439804       -1.7621348942
 H          0.2776218803       -2.0614354032       -1.4414073310
 H          0.3848559817       -3.7740052350        0.3499024376
 H         -1.5691016086       -4.1583279038        1.8041268648
 H         -3.6418632852       -2.8058168918        1.4591909242
 H         -3.7064184284        1.2239786781       -1.2515201755
 H         -3.5671891166        0.0493848717        2.1619525130
 H         -1.5851812988        0.4207078061        3.6138781752
 H          0.3702493325        1.6431169392        2.7356267529
 H          1.2887825846        3.1199260806        1.1307722595
 C          0.4681958417        3.7724857410       -0.7311478006
 C         -0.1098667381        5.0781653469       -0.2759120009
 C          1.3182348161        5.0061522977       -0.7236175747
 H          1.5861287546        5.4520390609       -1.6698300797
 H          2.0930133834        5.0759113949        0.0256892698
 H         -0.8247648095        5.5770021512       -0.9123187451
 H         -0.3053170829        5.1941767823        0.7794094042
 H          0.1625826985        3.3939867313       -1.6985993205
