  62
        -98.94483706
 C          1.9212725496        0.2631799193        0.0683650895
 C          2.9868315095        0.5304398483        0.9645772199
 C          4.2216183995       -0.2334704315        0.7475118191
 C          4.2602031296       -1.1541170504       -0.2329471819
 C          5.4652747296       -1.9728537300       -0.5926899927
 C          6.3069152298       -1.2783427088       -1.6725142518
 C          6.6100372197        0.1892816508       -1.3704706602
 H          7.2333944898        0.5662238317       -2.1842166897
 H          5.6771598098        0.7572357709       -1.3906904896
 C          7.3193556096        0.4286391294       -0.0302872198
 H          7.7659064296       -0.5012431610        0.3237642892
 H          8.1332940196        1.1395463595       -0.1874144189
 C          6.4253475395        1.0110872282        1.0660552907
 H          7.0667147194        1.3415627872        1.8873917512
 H          5.9040098996        1.8920493686        0.6833453717
 C          5.3832573494        0.0529741475        1.6569345896
 H          4.9581171994        0.5304093765        2.5445754101
 H          5.8693522494       -0.8745315628        1.9662670986
 H          7.2422936698       -1.8289787687       -1.7879061823
 H          5.7643728398       -1.3282231678       -2.6194682719
 H          5.1245932797       -2.9370708596       -0.9739015938
 H          6.0653363595       -2.1381622210        0.3000424772
 O          3.2059682097       -1.4122165795       -1.0467452923
 C          2.0157985197       -0.7078239596       -0.9286416616
 O          1.1483422298       -1.0382991986       -1.7595778321
 O          2.9074139694        1.3704569773        1.8998610608
 C          0.6279497696        1.0411710092        0.2473937902
 C         -0.4411877205        0.0973765686        0.7367029490
 C         -0.4918357706       -0.2345205229        2.0876278787
 C         -1.4436436907       -1.1160638734        2.5657274076
 C         -2.3623599906       -1.6917533324        1.7047260469
 C         -2.3121120805       -1.3742945109        0.3547587672
 C         -1.3661440704       -0.4768915604       -0.1215467917
 H         -1.3337857303       -0.2498647792       -1.1753499214
 N         -3.2534646904       -1.9531072699       -0.5266242235
 S         -4.8386966104       -1.4632501302       -0.2940559131
 O         -5.3177848305       -2.0052332915        0.9517984962
 O         -5.5554443003       -1.8604465188       -1.4844537037
 C         -4.7376243304        0.3143665497       -0.1919800212
 C         -4.5015050205        0.9066993184        1.0323596595
 C         -4.3294845105        2.2804796183        1.0877436610
 C         -4.3950947403        3.0334032696       -0.0743460781
 C         -4.6365040202        2.4232837709       -1.2957398288
 C         -4.8021801902        1.0493643710       -1.3588668704
 H         -4.9934565102        0.5353675720       -2.2873872609
 H         -4.6914011501        3.0125849019       -2.1971286782
 H         -4.2569838903        4.1021750895       -0.0285489869
 H         -4.1407056606        2.7569914172        2.0363289816
 H         -4.4621702506        0.2880848074        1.9137409988
 H         -3.0014622703       -1.8313594089       -1.4976908534
 H         -3.1199888406       -2.3730447628        2.0571938160
 H         -1.4711400508       -1.3597200945        3.6170387773
 H          0.2327544493        0.2052274964        2.7587290092
 H          0.8356021995        1.7620917983        1.0494735310
 C          0.2353614397        1.8002631105       -1.0031669190
 C         -0.8529027503        2.8275305805       -0.9192456080
 C          0.5695131598        3.2562316707       -1.1146343174
 H          0.8651599599        3.6434848717       -2.0782125669
 H          1.0845729697        3.7156090097       -0.2838706168
 H         -1.5391041402        2.9214279114       -1.7466855480
 H         -1.3069208704        2.9897525494        0.0463938621
 H          0.3050819998        1.2062513315       -1.9063606897
