  62
        -98.93871646
 C          0.6023485925        1.5586716536        0.1874944334
 C          1.0936137606        0.6738330399       -0.7993948212
 C          2.2996187409       -0.1096537254       -0.4471095927
 C          2.7706603834       -0.0569379107        0.8113995512
 C          3.9800445977       -0.7378375632        1.3963696848
 C          5.2969513019       -0.0631241056        0.9820047958
 C          5.3980274194        0.2844470753       -0.5005590391
 H          4.5821185750        0.9585779587       -0.7670229657
 H          6.3325089671        0.8315736407       -0.6505714843
 C          5.3997889252       -0.9111057592       -1.4505990071
 H          5.5929904451       -0.5257849292       -2.4550559445
 H          6.2243494448       -1.5774357367       -1.1878766630
 C          4.1066610349       -1.7294069807       -1.4998375679
 H          4.0379209933       -2.4041988827       -0.6510373527
 H          4.1541830720       -2.3592653741       -2.3930498230
 C          2.8342725537       -0.8962032346       -1.6195346770
 H          2.9551141700       -0.1781275832       -2.4393900206
 H          2.0112733022       -1.5477037243       -1.9359992139
 H          6.1234602928       -0.7187281614        1.2615394479
 H          5.3960681627        0.8655740012        1.5491546453
 H          3.9897447436       -1.7903143928        1.1315014543
 H          3.8823522313       -0.6659334341        2.4815763006
 O          2.1774679566        0.7097119777        1.7703185990
 C          1.1312652016        1.5581560926        1.4813239552
 O          0.7534272833        2.2560991344        2.4435704941
 O          0.5893821064        0.5328341737       -1.9453954963
 C         -0.5259611782        2.5522385235       -0.0380686429
 C         -1.8682997632        1.9529526849        0.3030819780
 C         -2.7215841800        2.6017223073        1.1880781187
 C         -3.9529629452        2.0585620905        1.5056181452
 C         -4.3442454660        0.8490869740        0.9624032245
 C         -3.4949274112        0.1892790504        0.0794051258
 C         -2.2705435925        0.7491471818       -0.2589707393
 H         -1.6291600560        0.2401846111       -0.9627897735
 N         -3.8693530545       -1.0487567255       -0.4565410085
 S         -2.7501911376       -2.1832244136       -0.9337780877
 O         -2.2380663470       -1.8670110235       -2.2421437296
 O         -3.4689364445       -3.4388537149       -0.8405034851
 C         -1.4245894916       -2.1956691523        0.2631609781
 C         -0.1934240059       -2.6363976512       -0.1765647281
 C          0.8498668815       -2.7407168274        0.7281171597
 C          0.6498319482       -2.3908946138        2.0538035171
 C         -0.5914044786       -1.9486273704        2.4813000286
 C         -1.6444270550       -1.8610574208        1.5840917926
 H         -2.6167619909       -1.5279371106        1.9080761239
 H         -0.7439774168       -1.6701974885        3.5117449641
 H          1.4647786086       -2.4610402631        2.7567847118
 H          1.8113579128       -3.0943528780        0.3938519653
 H         -0.0767316736       -2.8790805753       -1.2209816433
 H         -4.6925215641       -1.4697317336       -0.0522785918
 H         -5.2974051274        0.4121818084        1.2180140687
 H         -4.6082581680        2.5731187473        2.1914362162
 H         -2.4062161631        3.5306650759        1.6387788011
 H         -0.3429990744        3.3700177443        0.6736177294
 C         -0.5605761754        3.1396909732       -1.4354422572
 C         -1.1875160202        4.4842350001       -1.6430083420
 C          0.2982875857        4.3234683272       -1.7579576491
 H          0.7531531695        4.3770722429       -2.7356160923
 H          0.9167353743        4.7228378260       -0.9669940059
 H         -1.7583497788        4.6506122304       -2.5436008915
 H         -1.5745047762        4.9980234051       -0.7761222703
 H         -0.6944136084        2.3960871766       -2.2100777602
