  62
        -98.93369264
 C          1.9487159920        1.5064143354        0.6009359486
 C          1.8028683467        0.1571663603        1.0141572147
 C          2.9236576201       -0.7584858053        0.7448495305
 C          4.0291292410       -0.2782205908        0.1456243102
 C          5.3458706008       -0.9404828779       -0.2042756560
 C          5.4959176716       -2.4572964915       -0.1307059909
 C          4.7106148991       -3.2254831820       -1.1944375236
 H          5.1932179940       -3.0644119434       -2.1618398097
 H          4.7734201242       -4.2915738269       -0.9661735053
 C          3.2432305107       -2.8317097549       -1.3441271860
 H          2.8228935107       -3.4173849114       -2.1662085156
 H          3.1736027335       -1.7806234720       -1.6313564782
 C          2.3702686270       -3.0684301240       -0.1138166108
 H          2.4308971491       -4.1180274582        0.1808502378
 H          1.3377238896       -2.8524489971       -0.3995898114
 C          2.6969711962       -2.1971198819        1.1095337886
 H          1.8272182759       -2.2072002499        1.7730893952
 H          3.5405406124       -2.5966774179        1.6669556719
 H          6.5567041582       -2.6744848003       -0.2828152011
 H          5.2438414393       -2.8099338822        0.8650703406
 H          5.5938364332       -0.6031662743       -1.2158250076
 H          6.0889050728       -0.4856494406        0.4602340391
 O          4.1292802844        1.0307448122       -0.2241795618
 C          3.0966640509        1.9470618592       -0.0532026053
 O          3.3563468046        3.0725798554       -0.5151744964
 O          0.7684552619       -0.2608304435        1.5992978666
 C          0.7410283617        2.3904381479        0.8614800177
 C         -0.3765746923        1.9580788888       -0.0544669094
 C         -0.1474957097        1.7503467404       -1.4104493815
 C         -1.1672344570        1.3128347136       -2.2357852333
 C         -2.4305565350        1.0674996463       -1.7261308739
 C         -2.6675170288        1.2667575755       -0.3727960717
 C         -1.6434301367        1.7147507270        0.4516758785
 H         -1.8291724866        1.8508544444        1.5081631499
 N         -3.9464829988        1.0123956227        0.1563613348
 S         -4.6316808850       -0.4870481550       -0.1432691690
 O         -5.0420172801       -0.5557548875       -1.5228754184
 O         -5.6818552905       -0.6201612118        0.8408008020
 C         -3.3337693222       -1.6667655933        0.1738133321
 C         -2.6680432877       -2.2584633141       -0.8795509741
 C         -1.6405567098       -3.1466318512       -0.6051507645
 C         -1.2950439311       -3.4205154004        0.7088424261
 C         -1.9699982111       -2.8129042508        1.7555940601
 C         -2.9985397771       -1.9257598499        1.4878629992
 H         -3.5540225219       -1.4441344252        2.2767233191
 H         -1.6931832279       -3.0231637928        2.7759925637
 H         -0.4940102351       -4.1111783319        0.9205249482
 H         -1.1117532998       -3.6206106526       -1.4170633111
 H         -2.9690969979       -2.0222615912       -1.8871072847
 H         -4.0236412917        1.2329702917        1.1391173452
 H         -3.2328452733        0.7158277815       -2.3541514918
 H         -0.9765865860        1.1562521123       -3.2868760472
 H          0.8435299127        1.9259650943       -1.8060180547
 H          0.4224330065        2.1543418148        1.8906262453
 C          1.0068912881        3.8846481629        0.8084956854
 C          0.6131475221        4.7485014186       -0.3476907613
 C         -0.1311193967        4.8522642540        0.9480031900
 H          0.0099251753        5.7309735499        1.5587488558
 H         -1.1315965230        4.4469867189        0.9789699254
 H          1.2879359116        5.5420341655       -0.6294738000
 H          0.1124363270        4.2870141547       -1.1845481392
 H          1.9324468504        4.1495716983        1.3068683340
