  62
        -98.94226340
 C         -1.2751797822       -0.8518073120        0.4554515471
 C         -1.8555571544       -0.5893026155       -0.8095836217
 C         -2.7269431183        0.5925163993       -0.8741031860
 C         -2.8987668548        1.3614330312        0.2165580846
 C         -3.7244371750        2.6170664469        0.2949560276
 C         -5.2188722185        2.3676962752        0.5396227547
 C         -5.9880232535        1.8036116008       -0.6555452053
 H         -7.0509699049        1.8841567187       -0.4194466707
 H         -5.8022355727        2.4250174522       -1.5322899185
 C         -5.6648169492        0.3388116452       -0.9820221678
 H         -5.1719224594       -0.1255496076       -0.1248297787
 H         -6.5939994638       -0.2096324542       -1.1522346973
 C         -4.7907977844        0.1426947078       -2.2208942463
 H         -4.5942814508       -0.9262940839       -2.3361703081
 H         -5.3301781350        0.4827564958       -3.1078533302
 C         -3.4403080966        0.8685184954       -2.1631140337
 H         -3.5837393359        1.9405110605       -2.2995653247
 H         -2.8139847070        0.4927321419       -2.9763919497
 H         -5.3258922961        1.6936378011        1.3925900263
 H         -5.6681502488        3.3248865642        0.8142428040
 H         -3.3313331818        3.1956241098        1.1337171594
 H         -3.5966832693        3.1988424744       -0.6185166878
 O         -2.3030344451        1.0873550541        1.4072304487
 C         -1.5005293030       -0.0331330808        1.5625703505
 O         -1.0463005350       -0.1837072915        2.7129492601
 O         -1.6495131207       -1.2886417058       -1.8354406545
 C         -0.3593426442       -2.0414680518        0.6508056836
 C          0.8984469516       -1.9440993544       -0.1817384383
 C          1.7095478505       -3.0553881613       -0.3919381373
 C          2.8963514579       -2.9456463558       -1.0946081118
 C          3.3014856026       -1.7281427498       -1.6142633483
 C          2.4920170191       -0.6194372347       -1.4250284527
 C          1.3126075272       -0.7276512055       -0.7028509575
 H          0.7042637571        0.1545619005       -0.5466544483
 N          2.9136075568        0.6397602488       -1.9282317495
 S          4.0068770744        1.4053277480       -0.9118288945
 O          4.1532265319        2.7512125655       -1.4174517422
 O          5.2036056948        0.6070326605       -0.8511063344
 C          3.1889582738        1.4185343238        0.6724759756
 C          2.3217332759        2.4525003378        0.9640920504
 C          1.5876057696        2.4010287821        2.1379501301
 C          1.7213284087        1.3150547279        2.9894746160
 C          2.5951014496        0.2843776327        2.6803203611
 C          3.3346590038        0.3306718065        1.5097407732
 H          4.0192385643       -0.4544117940        1.2316275254
 H          2.6880113834       -0.5615685377        3.3419795140
 H          1.1261336752        1.2612539439        3.8867977591
 H          0.9015318481        3.1973347364        2.3800610101
 H          2.2425947204        3.2780986263        0.2739724120
 H          2.1393882340        1.2687531561       -2.0936891212
 H          4.2298584764       -1.6168321598       -2.1498578367
 H          3.5147546037       -3.8181298483       -1.2395073255
 H          1.4088268971       -4.0116767213        0.0050254625
 H         -0.0556145979       -2.0159898622        1.7084146069
 C         -1.1095155581       -3.3364710096        0.3929821806
 C         -0.8790076076       -4.5415247991        1.2531066626
 C         -2.1577706007       -3.7701563098        1.3721068517
 H         -3.0686528363       -4.2093799417        0.9939771504
 H         -2.3017155387       -3.1522330326        2.2469851908
 H         -0.9119283460       -5.5170885050        0.7916703068
 H         -0.1679174764       -4.4564783640        2.0611791997
 H         -1.3168834390       -3.4920687442       -0.6592990149
