  62
        -98.94503396
 C         -1.1770065425       -1.8270887870       -0.6857037366
 C         -0.5044349979       -2.3626620686        0.4425057135
 C          0.9221460707       -2.6828542691        0.2430310710
 C          1.4978980369       -2.4617512773       -0.9510141520
 C          2.9449384512       -2.6960947804       -1.2720789042
 C          3.7933424143       -1.4428767644       -1.0182174016
 C          3.5917978467       -0.8206590540        0.3635849146
 H          4.2906716936        0.0149101664        0.4500777960
 H          2.5877231932       -0.3973099154        0.4343616690
 C          3.7995678402       -1.7855454577        1.5385921837
 H          4.3871761635       -1.2777784001        2.3063760200
 H          4.3704327172       -2.6569720622        1.2138048359
 C          2.5000729060       -2.2420539497        2.2054998256
 H          2.7520771169       -2.7041909887        3.1643703361
 H          1.8766089820       -1.3689611803        2.4165736348
 C          1.6655957904       -3.2585370919        1.4149599093
 H          2.3018498168       -4.0879082246        1.0959404525
 H          0.8996078908       -3.6526402759        2.0897779791
 H          3.5399715337       -0.6906469867       -1.7688404080
 H          4.8439653471       -1.7110153878       -1.1448074044
 H          3.3139887872       -3.5242691708       -0.6700231926
 H          3.0200807328       -2.9646115405       -2.3273957935
 O          0.8168663244       -1.9649279109       -2.0156266826
 C         -0.5203938883       -1.6221121313       -1.9026450652
 O         -1.0151124355       -1.1545934864       -2.9478723480
 H         -1.2365940514        0.1035098973        1.1366971928
 C         -1.8524819037        0.7233430374        0.5024887440
 C         -2.6569524171        0.1387387198       -0.4660182590
 C         -3.4553235966        0.9582181632       -1.2548341428
 C         -3.4418553824        2.3306848084       -1.0801019158
 C         -2.6110081140        2.9116793176       -0.1391377041
 C         -1.8042721199        2.1018324084        0.6525806905
 N         -0.9325276961        2.6626822472        1.6033814799
 S          0.6702828984        2.1785806883        1.6354597854
 O          0.7670674238        0.8069758915        2.0562748543
 O          1.3227946740        3.1570097189        2.4774554127
 C          1.2417370408        2.3600566676       -0.0434884523
 C          0.9863226846        1.3531594160       -0.9519647853
 C          1.3831935768        1.5162233978       -2.2693858290
 C          2.0332776924        2.6789379550       -2.6533057380
 C          2.2879045523        3.6810012702       -1.7285226410
 C          1.8838565934        3.5259893287       -0.4123456575
 H          2.0647655107        4.2765800729        0.3399786837
 H          2.7967735041        4.5819932824       -2.0311104522
 H          2.3424378762        2.8011151564       -3.6793818616
 H          1.1676370913        0.7327633655       -2.9800998433
 H          0.4812508219        0.4565482941       -0.6284475878
 H         -0.9881034910        3.6693729944        1.6682073472
 H         -2.5816806708        3.9838291399       -0.0180713452
 H         -4.0690062740        2.9565168535       -1.6962136490
 H         -4.0745782092        0.5140864473       -2.0199478909
 C         -2.6241531680       -1.3558719944       -0.6732604384
 H         -3.0069663956       -1.5504831640       -1.6887481943
 C         -3.5204307190       -2.1089614803        0.2967871821
 C         -3.9965507488       -1.5294226527        1.5911484166
 C         -4.9567861132       -1.7054035258        0.4554113558
 H         -5.7049846135       -2.4802268680        0.5256260517
 H         -5.2860577538       -0.8160094733       -0.0602213757
 H         -4.0604409284       -2.1917591035        2.4408817833
 H         -3.6823987458       -0.5293964894        1.8482162757
 H         -3.3112346929       -3.1732409446        0.2974074217
 O         -1.0431788403       -2.5842770175        1.5560239103
