  62
        -98.94626594
 C         -1.8009779643       -1.0813164433       -0.3052528030
 C         -3.1553064244       -1.3063782474        0.0397584564
 C         -4.1020404551       -0.2679257981       -0.3817865705
 C         -3.6590178863        0.7995048148       -1.0710469638
 C         -4.5047521802        1.9305907340       -1.5901430161
 C         -4.7845932400        3.0270272865       -0.5530175871
 C         -5.7750146340        2.6441199136        0.5473755944
 H         -6.0428272202        3.5637915610        1.0713923615
 H         -6.6857653957        2.2510753045        0.0944968496
 C         -5.2289605660        1.6361376384        1.5683399720
 H         -5.4753635916        1.9709693422        2.5784902358
 H         -4.1391888190        1.6023858982        1.4993997407
 C         -5.7786018853        0.2178083391        1.4154092807
 H         -5.3000711428       -0.4183534458        2.1644720506
 H         -6.8530149446        0.2177084615        1.6118994940
 C         -5.5345927495       -0.4091307604        0.0362828056
 H         -5.7586646562       -1.4767830223        0.1002427875
 H         -6.1941637774        0.0424951305       -0.7043712089
 H         -3.8374067827        3.3301201466       -0.1010917499
 H         -5.1873547914        3.8884995996       -1.0906266860
 H         -5.4481850721        1.5384444048       -1.9709072710
 H         -3.9525762949        2.3751477231       -2.4209057752
 O         -2.3507414850        0.9686075641       -1.4002385347
 C         -1.3886836714        0.0476068469       -1.0116093934
 O         -0.2288307635        0.3446755714       -1.3537354254
 O         -3.5513745507       -2.3223488913        0.6711898061
 C         -0.7570659489       -2.1027246174        0.1082656956
 C          0.2898614832       -1.4470211489        0.9735754660
 C         -0.1212661792       -0.7632636009        2.1162735803
 C          0.7969964699       -0.1426098960        2.9395455482
 C          2.1475258742       -0.1829287900        2.6366765437
 C          2.5692963212       -0.8662258913        1.5037758761
 C          1.6439373884       -1.5024416516        0.6854763866
 H          2.0033162773       -2.0193210140       -0.1878660353
 N          3.9378605430       -0.9495502508        1.1832168824
 S          4.4774867902       -0.4143417221       -0.3093283044
 O          3.8412340125       -1.1630449362       -1.3605962122
 O          5.9188880311       -0.5180086355       -0.2330540005
 C          4.0130374577        1.3072448486       -0.3652518460
 C          2.7090496409        1.6535434504       -0.6568268486
 C          2.3572976409        2.9948825865       -0.6277459870
 C          3.3021399587        3.9579353403       -0.3105319593
 C          4.6078626034        3.5911869894       -0.0198932168
 C          4.9670025582        2.2538523780       -0.0420042797
 H          5.9701040551        1.9221719434        0.1728475308
 H          5.3428489186        4.3411889965        0.2244766448
 H          3.0187603067        4.9986402523       -0.2915800856
 H          1.3387991237        3.2675391840       -0.8553840241
 H          1.9811431423        0.8972046345       -0.9056847277
 H          4.5445738097       -0.5822132549        1.9034485955
 H          2.8681809543        0.3059542093        3.2747093453
 H          0.4610484103        0.3822174098        3.8210736606
 H         -1.1772334542       -0.7271913632        2.3480231084
 H         -1.2970450509       -2.8395514074        0.7216541260
 C         -0.1912639217       -2.8071998106       -1.1062141187
 C          0.3617346989       -4.1941499782       -0.9795399990
 C         -0.9391884894       -3.9675042849       -1.6879238957
 H         -0.9694319324       -4.0755767303       -2.7618199588
 H         -1.8512044510       -4.2676539127       -1.1926614940
 H          1.2297412840       -4.4557961869       -1.5660930962
 H          0.3344190577       -4.6556057527       -0.0039150584
 H          0.2939808883       -2.1290841773       -1.8002505080
