  62
        -98.93763304
 C         -2.6307933221       -1.1220613583        0.2086757214
 C         -2.7234764561       -0.2552659862       -0.9059727685
 C         -3.5365711864        0.9589895853       -0.7181414155
 C         -4.1367617808        1.1775381374        0.4643540073
 C         -5.0351916537        2.3226402677        0.8597172185
 C         -4.6032592989        3.7358079204        0.4418116105
 C         -3.0854169614        3.9612314897        0.3771599379
 H         -2.8368258015        4.8615034912        0.9425023574
 H         -2.5617317828        3.1274825979        0.8487323550
 C         -2.5689034009        4.1473317022       -1.0518984761
 H         -3.2593301700        4.8009945268       -1.5893184743
 H         -1.6023210543        4.6552792133       -1.0118972443
 C         -2.3714217471        2.8613575608       -1.8540871158
 H         -2.1228852790        3.1407737608       -2.8805627470
 H         -1.5171883420        2.3035494456       -1.4598733684
 C         -3.5763332444        1.9068302650       -1.8819416002
 H         -4.5140533452        2.4554158034       -1.9237028626
 H         -3.4922082444        1.2871711617       -2.7786457025
 H         -5.0425607563        4.4260081321        1.1639692548
 H         -5.0376771108        3.9777171278       -0.5271416130
 H         -6.0352238868        2.1225921879        0.4645226456
 H         -5.1028893202        2.2672635741        1.9489022749
 O         -4.0180805810        0.3130126764        1.5132179611
 C         -3.2585066258       -0.8409669474        1.4195362249
 O         -3.2159505657       -1.5172559972        2.4687901883
 H         -0.3367710571       -0.3898783430        1.1054271118
 C          0.2350429076       -0.9659469923        0.3865697930
 C         -0.3686873581       -2.0465216015       -0.2448024649
 C          0.3843190949       -2.7873511175       -1.1462360971
 C          1.6951363451       -2.4363824394       -1.4202176955
 C          2.2826601806       -1.3455059928       -0.8071704454
 C          1.5439392607       -0.6054849783        0.1069536313
 N          2.1278317118        0.5131546650        0.7290129824
 S          3.6070674206        0.3012129893        1.4972013626
 O          3.7606001354       -1.0508886517        1.9827018549
 O          3.6704738994        1.3518092430        2.4899584740
 C          4.8046278868        0.6337191525        0.2228295504
 C          4.7276688093        1.8409954199       -0.4436217870
 C          5.6586042044        2.1198401136       -1.4313891642
 C          6.6467818343        1.1938681524       -1.7315473409
 C          6.7124229549       -0.0121289518       -1.0507295880
 C          5.7832356293       -0.2981508250       -0.0624236322
 H          5.7904845529       -1.2248282473        0.4889006180
 H          7.4814766440       -0.7303258535       -1.2854770061
 H          7.3698874527        1.4139272923       -2.5009525420
 H          5.6102444815        3.0563155364       -1.9633776596
 H          3.9462779790        2.5335425537       -0.1782891808
 H          1.4920400592        1.0192847744        1.3284370145
 H          3.2995655644       -1.0634233001       -1.0258407803
 H          2.2660179455       -3.0185863715       -2.1272477464
 H         -0.0566904425       -3.6388643579       -1.6377405596
 C         -1.7965362791       -2.3853146243        0.1131818048
 H         -1.7960781565       -2.8275590045        1.1211080013
 C         -2.4418435318       -3.3634642742       -0.8472131842
 C         -2.3032248032       -4.8399586529       -0.6334549518
 C         -3.6162331309       -4.1654658187       -0.3759748796
 H         -4.4315052374       -4.3394552189       -1.0619651128
 H         -3.9306201054       -4.0262276352        0.6485836471
 H         -2.2205181657       -5.4810906798       -1.4981272581
 H         -1.7294975770       -5.1710571275        0.2191766053
 H         -2.4659083703       -2.9901680078       -1.8644364575
 O         -2.1597138719       -0.4821301925       -2.0067999650
