  62
        -98.94428728
 C          2.0756650699        1.3984979661        0.0438090320
 C          2.3653174506        0.4495660230       -0.9663542505
 C          3.7070108537       -0.1516641431       -0.9208978409
 C          4.5697657724        0.2138461880        0.0435532892
 C          5.9386849593       -0.3680315552        0.2404761324
 C          5.8995563732       -1.5690341716        1.1959453455
 C          4.8211919730       -2.5974034616        0.8540023601
 H          4.9091273783       -3.4127222642        1.5754376743
 H          3.8370762071       -2.1457833648        1.0006744712
 C          4.9115686626       -3.1636369674       -0.5700277106
 H          4.7761910329       -4.2463839659       -0.5251020982
 H          5.9050292164       -2.9784003254       -0.9801098494
 C          3.8560207417       -2.6229854473       -1.5363400786
 H          2.8642789876       -2.7235490478       -1.0873109529
 H          3.8709223670       -3.2425629910       -2.4371904998
 C          4.0418442743       -1.1659251809       -1.9785793662
 H          5.0599518090       -1.0198153022       -2.3444659302
 H          3.3497410419       -0.9793395248       -2.8048524846
 H          6.8792369502       -2.0501819700        1.1858403162
 H          5.7118456649       -1.2012758846        2.2073856398
 H          6.3421749788       -0.6706322388       -0.7238586985
 H          6.5818705899        0.4032662149        0.6674697260
 O          4.2646693215        1.1360341803        0.9902825569
 C          3.0210791433        1.7407330901        1.0178387113
 O          2.8773596349        2.5652324148        1.9422986850
 O          1.5620549838        0.0983132682       -1.8733470818
 C          0.7418799113        2.1219346468        0.1606396182
 C         -0.3056075163        1.2478448139        0.8086805340
 C         -0.9144607353        1.6264758324        1.9992538669
 C         -1.8820067297        0.8264475537        2.5825844148
 C         -2.2605878572       -0.3657594284        1.9923932002
 C         -1.6564084224       -0.7525363232        0.8026747841
 C         -0.6955782081        0.0563229943        0.2138168662
 H         -0.2294113846       -0.2500944754       -0.7107434261
 N         -2.0331094605       -1.9615416960        0.1916018090
 S         -3.6719787935       -2.2556150058        0.0270757075
 O         -4.1946377936       -2.7808171096        1.2644427566
 O         -3.7951866970       -3.1206214331       -1.1250823230
 C         -4.3965897452       -0.6588976511       -0.3031949702
 C         -5.3307061107       -0.1321647951        0.5649519063
 C         -5.8515949924        1.1257335867        0.3064589486
 C         -5.4270704226        1.8330664734       -0.8072754939
 C         -4.4894195253        1.2886901768       -1.6715824934
 C         -3.9669095275        0.0310311132       -1.4196278815
 H         -3.2382550644       -0.4195608301       -2.0746727988
 H         -4.1598315307        1.8397851155       -2.5376955622
 H         -5.8283894099        2.8144701092       -1.0048031801
 H         -6.5822955291        1.5505873132        0.9756150646
 H         -5.6286969762       -0.7149767771        1.4212677085
 H         -1.5380714236       -2.1478265057       -0.6684669337
 H         -3.0044844195       -1.0067694940        2.4373407388
 H         -2.3441915006        1.1324313479        3.5085880760
 H         -0.6138469096        2.5484643837        2.4750629487
 H          0.9272443297        2.9718549236        0.8304663836
 C          0.2410162274        2.6605324398       -1.1667452661
 C         -0.7578175120        3.7765049587       -1.1672620058
 C          0.6535310845        4.0330391235       -1.6017263774
 H          0.8516808167        4.2036230047       -2.6493190161
 H          1.2984038170        4.5938331082       -0.9404647548
 H         -1.5325588292        3.7727992310       -1.9180924322
 H         -1.0727026050        4.1671844569       -0.2117021631
 H          0.1529215262        1.9021027354       -1.9329176713
