  62
        -98.94850587
 C          1.2326946783        1.5229631762        0.4932645273
 C          2.1456448917        1.1834539613       -0.5340551117
 C          3.1897760334        0.2164007448       -0.1677026993
 C          3.2261976774       -0.2766898399        1.0833405381
 C          4.2115818629       -1.2956045883        1.5764772217
 C          3.6688200624       -2.7226093241        1.4207851073
 C          3.1050857697       -3.0285485807        0.0326568388
 H          2.8040126340       -4.0790704845        0.0322787712
 H          2.1918068615       -2.4478257428       -0.1224594833
 C          4.0838485567       -2.7786539708       -1.1232903399
 H          5.1060244716       -2.7523517721       -0.7428613080
 H          4.0176170870       -3.6176919236       -1.8193148090
 C          3.8093994947       -1.5091663203       -1.9320030377
 H          2.7530343652       -1.4796316427       -2.2133987019
 H          4.3938972288       -1.5615150309       -2.8547009494
 C          4.1616664672       -0.1862499524       -1.2399067776
 H          5.1788690939       -0.2349824922       -0.8459126791
 H          4.1204851921        0.6052837415       -1.9939928084
 H          4.4739116634       -3.4236905957        1.6506735331
 H          2.8677076717       -2.8726694644        2.1484930286
 H          5.1430701711       -1.1883286238        1.0239567528
 H          4.4025946864       -1.1044381630        2.6341546484
 O          2.3356663027        0.0770327040        2.0446892043
 C          1.2982946987        0.9515892918        1.7628063482
 O          0.5120502402        1.1414559806        2.7144836703
 O          2.0916649420        1.6600068955       -1.6980898396
 C          0.0785455805        2.4617724762        0.1982828706
 C         -0.8115408654        1.8825814542       -0.8768822882
 C         -1.5111418873        2.6639764123       -1.7887810340
 C         -2.3327336837        2.0700130057       -2.7314018246
 C         -2.4917244953        0.6963116644       -2.7767885336
 C         -1.7985396442       -0.0930194975       -1.8666696581
 C         -0.9708222649        0.5059485815       -0.9317452164
 H         -0.4177050267       -0.1204242856       -0.2501088559
 N         -1.9140335944       -1.4910350568       -1.8698402256
 S         -1.8518665440       -2.3299174366       -0.4250908419
 O         -0.5050568617       -2.3626731751        0.0861895797
 O         -2.4385066194       -3.6157382434       -0.7383654648
 C         -2.9372117918       -1.4264383687        0.6650348347
 C         -4.2910687843       -1.4800443518        0.3908735419
 C         -5.1673963015       -0.7519856593        1.1774780128
 C         -4.6775502492        0.0220498525        2.2191766546
 C         -3.3183619847        0.0612179489        2.4853851887
 C         -2.4364558653       -0.6694950181        1.7036584748
 H         -1.3749645901       -0.6474148730        1.8963243866
 H         -2.9251330023        0.6596493321        3.2919755830
 H         -5.3573868044        0.5955600170        2.8292391392
 H         -6.2258088463       -0.7862719040        0.9758256000
 H         -4.6330546825       -2.1022397952       -0.4201794968
 H         -2.6077131716       -1.8657331328       -2.4994819675
 H         -3.1334172950        0.2376402482       -3.5130859355
 H         -2.8634326059        2.6875851672       -3.4398789831
 H         -1.4059681186        3.7363847699       -1.7662572076
 H         -0.5126973439        2.5172941096        1.1253086863
 C          0.5896384760        3.8486899813       -0.1365072649
 C         -0.1936218094        5.0633205931        0.2593406886
 C          1.0776813000        4.7253107310        0.9764431025
 H          1.9495881541        5.3386729874        0.8059926816
 H          1.0116023203        4.3314662534        1.9805873315
 H         -0.1931051862        5.9152796231       -0.4038392617
 H         -1.1239801321        4.9112515636        0.7854681228
 H          1.1392168793        3.8727942510       -1.0702195736
