  62
        -98.93784021
 C         -1.7777454450       -0.5455895686       -0.4215216145
 C         -2.8892450873       -1.2320920452        0.1216387977
 C         -4.2198604684       -0.7234881252       -0.2497268943
 C         -4.3132247688        0.3409730843       -1.0650711008
 C         -5.5555846208        1.0000780818       -1.6108323732
 C         -6.7327529919        1.2055203749       -0.6479647634
 C         -6.3375165517        1.4841370969        0.8094915810
 H         -5.2675797081        1.6897852786        0.8741066272
 H         -6.8618469282        2.3772396965        1.1546341526
 C         -6.6952982673        0.3347618073        1.7547678025
 H         -6.7371477382        0.7206384519        2.7761786182
 H         -7.6938383753       -0.0283083912        1.5018739846
 C         -5.7204228282       -0.8420088692        1.7551023680
 H         -6.1471732846       -1.6318742774        2.3778352725
 H         -4.7780017271       -0.5414503529        2.2206458509
 C         -5.3901418238       -1.4294288371        0.3731329606
 H         -5.0748643410       -2.4665190399        0.5159996960
 H         -6.2604520109       -1.4181940728       -0.2783194238
 H         -7.3853172931        0.3341234740       -0.6785012364
 H         -7.3126647198        2.0451175944       -1.0350703356
 H         -5.8960545936        0.4195954540       -2.4733786842
 H         -5.2186101035        1.9683608326       -1.9889664921
 O         -3.2136511272        0.9775720066       -1.5600650245
 C         -1.9266426560        0.5634581830       -1.2522996965
 O         -1.0296939026        1.2530714880       -1.7734630138
 O         -2.7760360598       -2.2324507075        0.8791137450
 C         -0.3792603453       -1.0298001838       -0.0783881519
 C          0.3659754165        0.0639114227        0.6431907314
 C         -0.1542687256        0.5295175784        1.8495419531
 C          0.4642493305        1.5528194121        2.5390457218
 C          1.6216551647        2.1292287972        2.0446916962
 C          2.1504078543        1.6711116224        0.8441266638
 C          1.5294830517        0.6360782928        0.1550836334
 H          1.9484159641        0.3159290948       -0.7837705929
 N          3.3133916270        2.2481427091        0.3232584088
 S          4.3664098583        1.4167198631       -0.6570591633
 O          5.6028488078        2.1645851868       -0.5580882875
 O          3.8327834057        1.2690842259       -1.9879149428
 C          4.5857440127       -0.1921563251        0.0857629234
 C          4.6983768274       -1.2900790597       -0.7423943773
 C          4.9054104779       -2.5401349336       -0.1812312033
 C          4.9936967765       -2.6706763611        1.1955727961
 C          4.8825690441       -1.5580936913        2.0151214772
 C          4.6812536926       -0.3052237272        1.4585715794
 H          4.5966044476        0.5733131248        2.0766057105
 H          4.9518853612       -1.6620952875        3.0859657688
 H          5.1504481872       -3.6446249442        1.6316197311
 H          4.9932252879       -3.4055601071       -0.8183540428
 H          4.6160175028       -1.1421841486       -1.8074205032
 H          3.7722997235        2.9289270306        0.9084388835
 H          2.1041151922        2.9355836300        2.5756289261
 H          0.0461901390        1.9057466741        3.4696709828
 H         -1.0604965912        0.0797393763        2.2315853262
 H         -0.5266630425       -1.8642212443        0.6227560954
 C          0.3240301626       -1.5517095249       -1.3118571117
 C          1.4278678863       -2.5554754069       -1.1744534765
 C          0.0981056016       -2.9747249547       -1.7233844344
 H          0.0205086012       -3.2006133777       -2.7763352882
 H         -0.5492833106       -3.5736093955       -1.0996868610
 H          2.2643166676       -2.4905920030       -1.8528953405
 H          1.6928601743       -2.8739617350       -0.1777065829
 H          0.4020886689       -0.8104412647       -2.0997910982
