  62
        -98.94885761
 C         -1.1449547904       -1.6382010796        0.1274577004
 C         -1.6823212205       -0.8204554593        1.1493587501
 C         -2.9086217305       -0.0911533194        0.8100918797
 C         -3.4357585103       -0.2115199698       -0.4218166003
 C         -4.6931987903        0.4514160201       -0.9147499506
 C         -4.4889083302        1.8951326699       -1.3931459910
 C         -4.2773176703        2.9253930203       -0.2831568814
 H         -4.3867153103        3.9116231701       -0.7387951017
 H         -5.0652352404        2.8217738105        0.4641102486
 C         -2.9044427204        2.8535353905        0.3995921288
 H         -2.2000850703        2.3100655903       -0.2356315610
 H         -2.4996012804        3.8631629805        0.5075412285
 C         -2.9180509605        2.2239499109        1.7927168990
 H         -3.4858031106        2.8612409912        2.4751472987
 H         -1.8869848306        2.1820503311        2.1536136291
 C         -3.5057287405        0.8081665310        1.8506157294
 H         -3.2715215506        0.3821832513        2.8297221596
 H         -4.5890707405        0.8493410409        1.7376514693
 H         -3.6362351302        1.9210654197       -2.0762677910
 H         -5.3789035202        2.1801925697       -1.9594432412
 H         -5.0472276002       -0.1445446202       -1.7588066904
 H         -5.4518251304        0.4301247603       -0.1314951807
 O         -2.8798919903       -0.9945534101       -1.3841053300
 C         -1.7164263303       -1.7121201100       -1.1426353096
 O         -1.3073164402       -2.3692997603       -2.1190413394
 H          0.5186295597        0.0320820102       -0.5990356400
 C          1.3056201697       -0.6426164399       -0.8964238897
 C          1.2466982097       -1.9738132598       -0.5111641093
 C          2.2528720397       -2.8300554900       -0.9435673589
 C          3.2760818798       -2.3577589502       -1.7470740890
 C          3.3364102298       -1.0258655503       -2.1160781594
 C          2.3371818698       -0.1609769302       -1.6858770698
 N          2.3510317198        1.1992360397       -2.0268952902
 S          1.7575498997        2.3209133000       -0.9387817006
 O          0.3167039097        2.3037007701       -0.9341940807
 O          2.3704285498        3.5684457499       -1.3444537109
 C          2.4140860196        1.8103169106        0.6395786096
 C          1.5821359995        1.3293790309        1.6284895297
 C          2.1386788094        0.8810234913        2.8160018699
 C          3.5119795593        0.9246690113        2.9954263700
 C          4.3358213894        1.4241528410        1.9974369299
 C          3.7846561496        1.8679874906        0.8071709397
 H          4.3920976096        2.2685366203        0.0118989897
 H          5.4034742694        1.4622763010        2.1419032700
 H          3.9411013893        0.5685537316        3.9186990402
 H          1.4865773693        0.4885481815        3.5802573900
 H          0.5164714595        1.2946955108        1.4643219696
 H          3.1847310799        1.5192139295       -2.4963825902
 H          4.1384000599       -0.6592688105       -2.7379789194
 H          4.0448182798       -3.0359388203       -2.0848006587
 H          2.2306889097       -3.8689015699       -0.6577541486
 C          0.1272605196       -2.4157538695        0.4006423108
 H          0.4137488295       -2.1509673092        1.4307353807
 C         -0.1354273204       -3.9072241995        0.3396986512
 C          0.5993906395       -4.8472237992        1.2470408616
 C         -0.8519659305       -4.5602137992        1.4826436414
 H         -1.5764827505       -5.3304571992        1.2650172215
 H         -1.1214830106       -3.9324851689        2.3195446111
 H          0.8715025595       -5.8210528194        0.8685699419
 H          1.3146630194       -4.4228664890        1.9352429115
 H         -0.3793153203       -4.2435672999       -0.6617883687
 O         -1.1638804506       -0.7094048089        2.2933659701
