  62
        -98.94877309
 C         -0.9394915125       -1.2872573501        0.0413149455
 C         -1.9009102011       -1.0236827895        1.0437078844
 C         -2.6290488681        0.2452488049        0.9178275277
 C         -2.3255443682        1.0782561385       -0.0944180423
 C         -3.0209181788        2.3807111520       -0.3654621774
 C         -4.2055604450        2.1902704859       -1.3228331171
 C         -5.1459331329        1.0545731229       -0.9199045114
 H         -5.9614003209        1.0334627454       -1.6459429265
 H         -4.6139874213        0.1043406221       -1.0045820878
 C         -5.7259029840        1.1834870979        0.4954875907
 H         -5.6211177541        2.2102641008        0.8479870803
 H         -6.7944338605        0.9611097669        0.4585694913
 C         -5.1094229653        0.2314413062        1.5222758972
 H         -5.7311403413        0.2513007832        2.4214284298
 H         -5.1295170707       -0.7898453218        1.1334852112
 C         -3.6726997741        0.5525296158        1.9544758768
 H         -3.4342126260       -0.0798460362        2.8151529567
 H         -3.6058569654        1.5956682477        2.2719326540
 H         -4.7637875126        3.1269547313       -1.3720502590
 H         -3.8139080572        1.9730132907       -2.3189450962
 H         -3.3644943604        2.8045505540        0.5763652139
 H         -2.3040741902        3.0670997343       -0.8183621461
 O         -1.3766095404        0.8032649366       -1.0240967399
 C         -0.6565482055       -0.3812803355       -0.9810713986
 O          0.1865663893       -0.5057505554       -1.8879088060
 O         -2.1384259052       -1.8131836671        1.9995915333
 C         -0.1471638161       -2.5779206681        0.1000563623
 C          1.3366734409       -2.3060189138        0.1363451785
 C          2.2676261835       -3.1563045431       -0.4492838996
 C          3.6203585958       -2.8748247881       -0.3749903729
 C          4.0734905310       -1.7378187409        0.2683442340
 C          3.1504725878       -0.8834528456        0.8607681168
 C          1.7987558114       -1.1804129585        0.8051212560
 H          1.0974098004       -0.5118551784        1.2825630692
 N          3.5677472458        0.2831725718        1.5226558603
 S          2.6696375896        1.6821579761        1.4120501658
 O          3.5929857875        2.7234090835        1.8181722622
 O          1.4694572265        1.5797905393        2.2065162074
 C          2.2491114096        1.9309845239       -0.3039645969
 C          3.1035997388        1.5124739772       -1.3032353587
 C          2.7740806344        1.7811904124       -2.6213158687
 C          1.6120261067        2.4739028187       -2.9174924143
 C          0.7710656931        2.8987720880       -1.9027719903
 C          1.0889797441        2.6225833309       -0.5836548283
 H          0.4510042330        2.9149193089        0.2365081504
 H         -0.1369160389        3.4319259748       -2.1358703480
 H          1.3548654487        2.6775228590       -3.9449907889
 H          3.4227479085        1.4431673891       -3.4132985354
 H          4.0038115828        0.9738732998       -1.0567821906
 H          4.5580303631        0.4745235386        1.4771822364
 H          5.1279401822       -1.5120520809        0.3163134814
 H          4.3314284618       -3.5444343194       -0.8340723621
 H          1.9320795686       -4.0403915878       -0.9661640415
 H         -0.4307797563       -3.0539485703        1.0516555441
 C         -0.5534838565       -3.4922161137       -1.0397307146
 C         -0.5873736751       -4.9790400697       -0.8527512636
 C         -1.8675500607       -4.2075763542       -0.9553370334
 H         -2.4621000230       -4.3048354969       -1.8512957144
 H         -2.4513506724       -4.0614779492       -0.0579512597
 H         -0.3048439729       -5.6098018887       -1.6822094090
 H         -0.3109808195       -5.3693736002        0.1151756151
 H         -0.2569330807       -3.1021048891       -2.0070267526
