  62
        -98.93918004
 C         -1.9869518414       -1.3411464232        0.0054860579
 C         -2.5939157468       -0.6561895860        1.0822348257
 C         -3.7780576999        0.1598217180        0.7641317341
 C         -4.2015172760        0.2390651349       -0.5115395995
 C         -5.3897118485        0.9532852336       -1.1212061854
 C         -6.1281168489        2.0438052784       -0.3489256132
 C         -5.3115187698        3.3083153434       -0.0859082697
 H         -5.9077344801        3.9748960388        0.5411151613
 H         -5.1371219867        3.8153749835       -1.0383227684
 C         -3.9525522374        3.0901132170        0.5749313153
 H         -3.4874954786        4.0701755859        0.7139973157
 H         -3.3054405431        2.5220031191       -0.0972440585
 C         -3.9911241998        2.3958749613        1.9354064586
 H         -4.6718009401        2.9303377330        2.6007247689
 H         -2.9873964199        2.4593399668        2.3648091714
 C         -4.3912749142        0.9096717952        1.9115757434
 H         -5.4719852008        0.7903611056        1.9136346848
 H         -4.0078270918        0.4431627877        2.8236795939
 H         -6.5225695468        1.6468339615        0.5817464159
 H         -6.9881709448        2.3288592478       -0.9609425704
 H         -5.0310651078        1.3668988426       -2.0691534553
 H         -6.1081094309        0.1676935541       -1.3805423604
 O         -3.5693039959       -0.4258471642       -1.5222888227
 C         -2.4518007845       -1.2156067316       -1.3023506522
 O         -1.9808242331       -1.7347223718       -2.3308961683
 H          0.0468097523        0.3268523235        0.3626044215
 C          0.6972848793       -0.2591736975       -0.2749663633
 C          0.4318448155       -1.6129917247       -0.4471201566
 C          1.2840522303       -2.3562437064       -1.2521081611
 C          2.3501089583       -1.7478758062       -1.8936777460
 C          2.5958155031       -0.3965492808       -1.7399253609
 C          1.7621174230        0.3522715814       -0.9176346107
 N          2.0098258457        1.7228751498       -0.7385458217
 S          3.5897495584        2.2248239901       -0.5186780970
 O          3.4932077875        3.4536358598        0.2376419121
 O          4.2502525443        2.3243760586       -1.7964392255
 C          4.3599337615        0.9469355260        0.4598298598
 C          5.4492655117        0.2606876145       -0.0366640526
 C          6.0143601918       -0.7455275130        0.7305764670
 C          5.4803053470       -1.0487068726        1.9731048030
 C          4.3876073724       -0.3473656849        2.4599634857
 C          3.8200658603        0.6608487682        1.6982477508
 H          2.9726866212        1.2267502095        2.0515505632
 H          3.9731423144       -0.5835529271        3.4269546419
 H          5.9171690625       -1.8353642675        2.5676919069
 H          6.8653183822       -1.2908039230        0.3555596655
 H          5.8303047273        0.5271866756       -1.0090271295
 H          1.3814921629        2.1759095086       -0.0922093201
 H          3.4080947626        0.0937686644       -2.2513037966
 H          2.9964340718       -2.3349663562       -2.5278554120
 H          1.1078312855       -3.4101211806       -1.3887661733
 C         -0.7606072834       -2.1951121886        0.2721028910
 H         -0.5786569514       -2.1115386637        1.3539266149
 C         -1.0321311068       -3.6451831856       -0.0653712354
 C         -0.2868291810       -4.7354609373        0.6431579747
 C         -1.7364764922       -4.5025218123        0.9417666032
 H         -2.4605839042       -5.2217873637        0.5895831514
 H         -1.9998061825       -4.0462228422        1.8849442169
 H          0.4365595802       -4.4429835730        1.3888820303
 H         -0.0156024405       -5.6201472268        0.0872679429
 H         -1.2868928190       -3.7896344882       -1.1090796981
 O         -2.1645794678       -0.7212655262        2.2665804007
