  62
        -98.94124309
 C         -1.2854970154       -1.7352271692       -0.0865626259
 C         -0.2833284921       -1.9106489494       -1.0704851940
 C          1.0271629101       -2.4230444415       -0.6263902182
 C          1.1930558294       -2.7202897289        0.6756895827
 C          2.4437172844       -3.1751019489        1.3798142127
 C          3.4336168198       -2.0217544678        1.6012134025
 C          3.6941604347       -1.1561320484        0.3714689108
 H          2.7570165602       -0.6863564265        0.0678497401
 H          4.3645971555       -0.3475308990        0.6762764614
 C          4.3276229165       -1.8739954881       -0.8185787371
 H          4.5646609184       -1.1096115919       -1.5627467777
 H          5.2672494517       -2.3303389155       -0.4999334573
 C          3.4680719121       -2.9445640660       -1.4973225130
 H          3.4931951207       -3.8811955090       -0.9466855788
 H          3.9156854179       -3.1477515071       -2.4743772413
 C          2.0244668608       -2.5275267281       -1.7554708910
 H          1.5803486142       -3.2278869182       -2.4730170814
 H          2.0206844312       -1.5546312089       -2.2590005590
 H          4.3740021613       -2.4394136395        1.9664124708
 H          3.0246069412       -1.3680073511        2.3769082038
 H          2.1327911353       -3.5563965144        2.3552853758
 H          2.9142537235       -3.9899217286        0.8377294828
 O          0.1825210541       -2.5934299718        1.5805664923
 C         -1.0549895954       -2.0687296391        1.2493677715
 O         -1.8351828223       -1.9713236323        2.2165977063
 O         -0.4654603767       -1.6292785151       -2.2874038976
 C         -2.5812023741       -1.0879215567       -0.5315668250
 C         -2.5796862244        0.4077493592       -0.2887923083
 C         -3.4550637897        1.2351493082       -0.9869101775
 C         -3.4344129675        2.6040913000       -0.7956470808
 C         -2.5186489356        3.1844875650        0.0656953929
 C         -1.6404309046        2.3692010126        0.7673363005
 C         -1.6979801674        0.9917737257        0.6054156435
 H         -1.0274890025        0.3804318351        1.1877596100
 N         -0.6729572715        2.9078769523        1.6339513801
 S          0.9102177213        2.3693883387        1.5092630975
 O          1.0259836829        1.0140236832        1.9801849258
 O          1.6812504410        3.3621038035        2.2264561581
 C          1.2721311795        2.4685488974       -0.2331962249
 C          0.9938135833        1.3894542133       -1.0463624038
 C          1.1885456375        1.5072761912       -2.4132189130
 C          1.6684216533        2.6954598715       -2.9412424653
 C          1.9561018100        3.7685505408       -2.1104022993
 C          1.7478843460        3.6604980978       -0.7451161860
 H          1.9582600338        4.4686788130       -0.0634507803
 H          2.3347494730        4.6894165376       -2.5237483961
 H          1.8192253191        2.7828742104       -4.0056101407
 H          0.9466318944        0.6665833592       -3.0455827790
 H          0.6264522266        0.4729654875       -0.6127265122
 H         -0.6936188571        3.9154313521        1.7046488694
 H         -2.4836088566        4.2553287385        0.1947242420
 H         -4.1232306955        3.2316924783       -1.3397183052
 H         -4.1505974628        0.7986078172       -1.6863424591
 H         -2.6208459544       -1.2379624342       -1.6206869880
 C         -3.8147740989       -1.7216993382        0.0834445892
 C         -5.0745737533       -1.8565161763       -0.7163343650
 C         -4.2598929503       -3.0714352065       -0.3918556875
 H         -4.6331745036       -3.7744875808        0.3371748286
 H         -3.6898745507       -3.5302280741       -1.1868418087
 H         -6.0187097318       -1.7203862788       -0.2118966100
 H         -5.0661532878       -1.5123808956       -1.7392986701
 H         -3.9085203572       -1.5195428082        1.1432772370
