  62
        -98.94473047
 C          1.4244931209        0.7834575719        0.3261795691
 C          2.4291292508        0.8143377412       -0.6723363211
 C          3.3228364305       -0.3544764690       -0.7184818608
 C          3.1130807403       -1.3876451687        0.1157311596
 C          3.9744664400       -2.6134285489        0.2007814199
 C          5.0887042102       -2.4362478388        1.2420430897
 C          5.8633732105       -1.1257205690        1.1022215992
 H          5.1943092708       -0.2904171888        1.3218429290
 H          6.6401380906       -1.1240755890        1.8701122891
 C          6.5061354804       -0.9112315397       -0.2752324310
 H          7.5266935005       -0.5497513699       -0.1321817713
 H          6.5711549701       -1.8619420999       -0.8056616507
 C          5.7903101906        0.1133832902       -1.1574265013
 H          6.4414054605        0.3455852397       -2.0044103214
 H          5.6419561809        1.0393982404       -0.5960727016
 C          4.4363727404       -0.3277247597       -1.7275929509
 H          4.1390626805        0.4054579801       -2.4828187611
 H          4.5410890500       -1.2991141099       -2.2144842906
 H          5.7775962400       -3.2787529590        1.1575994399
 H          4.6400137603       -2.4630283183        2.2378869498
 H          4.4063021298       -2.8170070193       -0.7770778800
 H          3.3479326298       -3.4571581886        0.4946768903
 O          2.1029156905       -1.4080168381        1.0227332698
 C          1.2604502608       -0.3198815778        1.1688068495
 O          0.4098860108       -0.4539000073        2.0724084597
 O          2.5952401809        1.7555714809       -1.4912001514
 C          0.4343968813        1.9175717122        0.5472470688
 C         -0.7104825889        1.8059847221       -0.4312013510
 C         -0.5307148690        2.0176315316       -1.7944721511
 C         -1.5958936192        1.8902033716       -2.6664806909
 C         -2.8514694792        1.5371110021       -2.2030081806
 C         -3.0407498791        1.3205463826       -0.8435325805
 C         -1.9732331389        1.4661420026        0.0320730893
 H         -2.1360025188        1.3006746531        1.0863179694
 N         -4.3060250091        0.9714969031       -0.3425531602
 S         -4.4506091393       -0.2500227664        0.7929504403
 O         -5.8575703494       -0.5871440961        0.7722215306
 O         -3.9236082490        0.1867886639        2.0594396700
 C         -3.5005738997       -1.6014195769        0.1216814106
 C         -2.1860603797       -1.7897271171        0.4955283505
 C         -1.4621772801       -2.8083712875       -0.1057253092
 C         -2.0577053804       -3.6165572577       -1.0606427089
 C         -3.3828559504       -3.4180919175       -1.4198418888
 C         -4.1101573101       -2.3990398171       -0.8287294990
 H         -5.1448246200       -2.2172714569       -1.0709948190
 H         -3.8467633707       -4.0519691976       -2.1582602285
 H         -1.4865921307       -4.4062021580       -1.5230779887
 H         -0.4324915501       -2.9535621177        0.1832877707
 H         -1.7329425894       -1.1590104970        1.2444345902
 H         -5.0207341892        0.8829261531       -1.0507458901
 H         -3.6804424793        1.4327305821       -2.8863684305
 H         -1.4455497593        2.0588310512       -3.7220373010
 H          0.4525886110        2.2656844012       -2.1625817113
 H          0.0224975014        1.7600017527        1.5538166589
 C          1.0702971516        3.2928245520        0.5066178682
 C          0.3555807220        4.4352759724        1.1603472279
 C          1.6088179220        3.8857619423        1.7719990080
 H          2.5113505121        4.4762593021        1.7215788176
 H          1.5203658619        3.3012102127        2.6768081582
 H          0.3957593322        5.4056430123        0.6899939476
 H         -0.5829137380        4.2228228929        1.6509652981
 H          1.6152404516        3.4936653315       -0.4056597519
