  62
        -98.93884653
 C          1.9940055303        1.3469198597       -0.0209652404
 C          2.6245069006        0.7730632197        1.1058556595
 C          3.7986372904       -0.0753739304        0.8390611593
 C          4.1908309400       -0.2643250006       -0.4330655208
 C          5.3125533398       -1.1393334407       -0.9197354610
 C          4.7854514096       -2.5345546007       -1.2962482207
 C          4.7222657598       -3.5335642806       -0.1411728306
 H          4.2096147996       -4.4248961506       -0.5105565104
 H          5.7370166298       -3.8298118307        0.1326602691
 C          4.0024936002       -3.0387679904        1.1164240295
 H          3.0923999602       -2.5062160803        0.8332391097
 H          3.6969551902       -3.9143720803        1.6928766697
 C          4.8810390705       -2.1427040504        2.0023915492
 H          5.9170741004       -2.2283511105        1.6751904089
 H          4.8497182607       -2.5106189403        3.0300063492
 C          4.4753541307       -0.6610290604        2.0483230892
 H          3.7646940509       -0.5038796802        2.8658522493
 H          5.3584114108       -0.0569796204        2.2810658289
 H          5.4290519693       -2.9556261608       -2.0712234809
 H          3.7901534995       -2.4105154607       -1.7315752705
 H          6.1019401800       -1.2043890307       -0.1768092512
 H          5.7116088296       -0.6647102809       -1.8184898812
 O          3.5473992698        0.2987091094       -1.4922628607
 C          2.4367360799        1.1085172795       -1.3220307405
 O          1.9474341797        1.5423515895       -2.3811161404
 O          2.2146476609        0.9490410299        2.2861650596
 C          0.7744615104        2.2264190798        0.1849592699
 C         -0.4231137598        1.6238466899       -0.5080248397
 C         -1.2968000099        2.3543967299       -1.3019028596
 C         -2.3716304102        1.7342975899       -1.9167768792
 C         -2.6053674502        0.3828176100       -1.7467926690
 C         -1.7505263601       -0.3531815700       -0.9349799192
 C         -0.6776919099        0.2705609499       -0.3178704995
 H         -0.0118425398       -0.3063243501        0.3123422103
 N         -1.9876150702       -1.7238277600       -0.7388425090
 S         -3.5599679302       -2.2181674398       -0.4508321085
 O         -3.4375028101       -3.4365010297        0.3186599815
 O         -4.2700456105       -2.3333353299       -1.7002545783
 C         -4.2859980998       -0.9215461396        0.5368662415
 C         -3.6960286894       -0.6177460196        1.7478911213
 C         -4.2259308591        0.4082682505        2.5128891414
 C         -5.3318560892        1.1093257506        2.0564599016
 C         -5.9163798695        0.7882484506        0.8414275718
 C         -5.3888176898       -0.2355714096        0.0707783318
 H         -5.8089494501       -0.5157872896       -0.8813966481
 H         -6.7773398496        1.3335158806        0.4900295320
 H         -5.7394062089        1.9098043507        2.6534329316
 H         -3.7715217488        0.6586830206        3.4581452712
 H         -2.8395457894       -1.1837530196        2.0782336012
 H         -1.3390301601       -2.1686652100       -0.1068120291
 H         -3.4248771204       -0.1174349400       -2.2365921088
 H         -3.0338957503        2.3119266799       -2.5431107791
 H         -1.1306047299        3.4083612999       -1.4504250997
 H          0.5845787207        2.2118617399        1.2686425699
 C          1.0706493105        3.6498561998       -0.2371440303
 C          0.3719183308        4.7967981699        0.4279803097
 C          1.8216425908        4.5399337198        0.7058845994
 H          2.5562675008        5.2187572397        0.2993763291
 H          2.0955399410        4.1261388298        1.6655299093
 H          0.1114784407        5.6578262799       -0.1687689903
 H         -0.3403607890        4.5653999900        1.2051970600
 H          1.3036440902        3.7305120096       -1.2929045604
