  62
        -98.93647774
 C         -1.7564471202       -0.8986161794        0.2239032623
 C         -3.0585363502       -1.1561560178        0.7123019529
 C         -4.1611286801       -0.4933577094       -0.0004928189
 C         -3.8800054498        0.2882667579       -1.0591801808
 C         -4.8815014596        1.0890553962       -1.8419744629
 C         -5.2631589393        2.3629106182       -1.0612614961
 C         -6.7211613493        2.4090811197       -0.6035419963
 H         -6.8138421592        3.2300415715        0.1107954117
 H         -7.3548319392        2.6459857177       -1.4608289869
 C         -7.2612193797        1.1268585215        0.0372893469
 H         -7.5204057198        0.4081428796       -0.7415732113
 H         -8.1945062796        1.3913587029        0.5390188262
 C         -6.3352138799        0.4407155838        1.0500046587
 H         -6.9487549300        0.0687315860        1.8731681796
 H         -5.6339588297        1.1581508047        1.4771501569
 C         -5.5556525201       -0.7649009978        0.4920302117
 H         -5.4309239804       -1.5001604958        1.2926807236
 H         -6.1384355502       -1.2405565596       -0.3016747471
 H         -5.0716745891        3.2407520066       -1.6803033683
 H         -4.6052616693        2.4429677703       -0.1931275062
 H         -5.7627163797        0.4834431459       -2.0413807014
 H         -4.4158400995        1.3519943237       -2.7919823935
 O         -2.6151469197        0.5058772965       -1.5027626513
 C         -1.5211570099       -0.0725798022       -0.8748514198
 O         -0.4241301298        0.2201423563       -1.3821746704
 O         -3.2874507005       -1.9043560953        1.7015800547
 C         -0.5715887804       -1.5504337079        0.9110124140
 C          0.4089359099       -0.5141176669        1.4024470214
 C         -0.0653068899        0.6638633446        1.9732356885
 C          0.8055167403        1.6385093555        2.4215427461
 C          2.1741779803        1.4563047050        2.3252888166
 C          2.6592714700        0.2788431135        1.7753601696
 C          1.7813361698       -0.6987032975        1.3210357320
 H          2.1789278696       -1.6063038086        0.8934231343
 N          4.0565232200        0.0925283629        1.6863852601
 S          4.8858351903        1.0421053999        0.5817689178
 O          6.2839206302        0.7219864701        0.7589303187
 O          4.5118808906        2.4183796105        0.7783765043
 C          4.3373882402        0.4570330861       -1.0117168108
 C          3.0446186003        0.7316258954       -1.4107662115
 C          2.5844349103        0.2008586925       -2.6055331702
 C          3.4250262301       -0.5824787996       -3.3813643582
 C          4.7250433700       -0.8412277589       -2.9719048875
 C          5.1850088301       -0.3265498260       -1.7708543788
 H          6.1832718300       -0.5105197353       -1.4075317883
 H          5.3758837099       -1.4485715606       -3.5803809460
 H          3.0619311301       -0.9948049019       -4.3099059372
 H          1.5620881203        0.3865651120       -2.8938331308
 H          2.4035109004        1.3411880271       -0.7947263431
 H          4.3223152498       -0.8732298275        1.5484208925
 H          2.8683889404        2.2131679156        2.6511788847
 H          0.4164683205        2.5491549767        2.8520105938
 H         -1.1337795899        0.8118310751        2.0529431580
 H         -0.9908910405       -2.0668877956        1.7878818552
 C          0.0564527895       -2.5808173304       -0.0061417034
 C          0.6882678991       -3.8187086491        0.5558041297
 C         -0.6200955209       -3.9077463106       -0.1690048301
 H         -0.6403813609       -4.3609160531       -1.1486002290
 H         -1.5162063709       -4.0794460890        0.4094305203
 H          1.5674783191       -4.2153840905        0.0701924508
 H          0.6804312890       -3.9440471464        1.6281761300
 H          0.5004151096       -2.1330807527       -0.8886947445
