  62
        -98.93635095
 C         -0.7986004493       -1.3278015095        0.4606040620
 C         -1.1177631596       -0.4690322606       -0.6237144388
 C         -2.2340849098        0.4640691393       -0.3979018895
 C         -2.8022031397        0.5644966003        0.8144941905
 C         -3.9376734899        1.4739807704        1.1972448598
 C         -5.3234324698        0.9031499097        0.8653493905
 C         -5.6811177499        0.8904978883       -0.6216278395
 H         -6.7489717899        0.6744119180       -0.6926296592
 H         -5.5222349002        1.8842466380       -1.0416194804
 C         -4.9131930798       -0.1483179322       -1.4512827586
 H         -4.4726776195       -0.8935513715       -0.7846004380
 H         -5.6087945097       -0.6782493730       -2.1059737081
 C         -3.8129921200        0.4348375072       -2.3391671193
 H         -4.2588545503        1.0828848965       -3.0971139698
 H         -3.3153341599       -0.3902324331       -2.8560066286
 C         -2.7445133401        1.2325052682       -1.5791737101
 H         -1.9022830502        1.4093143378       -2.2534285804
 H         -3.1489335703        2.1947549084       -1.2653561609
 H         -5.3889603895       -0.1116851299        1.2642991014
 H         -6.0625234699        1.5141811800        1.3885277700
 H         -3.8734334598        1.6154091214        2.2779234797
 H         -3.8210901302        2.4419814700        0.7091993789
 O         -2.3727274394       -0.1711078187        1.8713710011
 C         -1.4154640092       -1.1541691786        1.7088787119
 O         -1.1893252689       -1.8023746376        2.7513544924
 H          1.4703627403       -0.3938832702       -0.8684123391
 C          2.1301171605       -0.9877144995       -0.2573063587
 C          1.6491076809       -2.0863553390        0.4375588424
 C          2.5479956211       -2.8599927981        1.1684353630
 C          3.8911512411       -2.5397720278        1.2080625825
 C          4.3616630607       -1.4200456582        0.5460168415
 C          3.4737420605       -0.6395092391       -0.1851081291
 N          3.9279546301        0.5133158704       -0.8361523302
 S          2.9411085098        1.8253349299       -1.1206086613
 O          2.2071161197        1.6517385087       -2.3468723710
 O          3.8564789495        2.9505797802       -1.1084715324
 C          1.8191679199        1.9826894609        0.2601593187
 C          2.2344660701        1.6826828521        1.5423558989
 C          1.3485736102        1.8623718129        2.5924138089
 C          0.0787721700        2.3622033624        2.3503164386
 C         -0.3145251402        2.6811389211        1.0608359983
 C          0.5587629597        2.4807647804        0.0041223784
 H          0.2815176396        2.6889699594       -1.0169373518
 H         -1.2977528203        3.0808143307        0.8736774981
 H         -0.6083134799        2.5015605429        3.1700976785
 H          1.6505496704        1.6116572338        3.5965870791
 H          3.2294316502        1.3065642025        1.7156843192
 H          4.8715989201        0.7937748708       -0.6137983206
 H          5.4051981207       -1.1488797480        0.5927029311
 H          4.5754582813       -3.1526216071        1.7743944730
 H          2.1796860814       -3.7141741377        1.7173874338
 C          0.1896508710       -2.4834725793        0.4383279629
 H          0.0140841312       -2.9749151585        1.4083493033
 C         -0.0278010289       -3.5799087903       -0.6054438361
 C         -1.2814343089       -3.7143761613       -1.4127140258
 C          0.0116219509       -3.3647558316       -2.0862004163
 H          0.4952840510       -4.1148887921       -2.6954035557
 H          0.1281533906       -2.3556185419       -2.4459749272
 H         -1.7005592887       -4.6995216516       -1.5568601649
 H         -2.0219526891       -2.9326430214       -1.3231420465
 H          0.4112445814       -4.5148664899       -0.2680515053
 O         -0.5351824498       -0.4521314214       -1.7382045788
