  62
        -98.94438130
 C         -1.7816517253       -0.6878863093       -0.3492875935
 C         -2.8993896133       -1.3366931011        0.2300955963
 C         -4.2153573131       -0.8481082798       -0.1953208862
 C         -4.2975650090        0.1466715677       -1.0975621517
 C         -5.5663301213        0.7323381025       -1.6558466775
 C         -6.1932454972        1.8209719878       -0.7741651116
 C         -6.8564152775        1.3161807441        0.5078758541
 H         -7.4373495662        2.1457035305        0.9158979081
 H         -7.5573909900        0.5177720363        0.2624277095
 C         -5.8714376923        0.8286481584        1.5795795847
 H         -4.8714295411        1.2059466285        1.3529707017
 H         -6.1562865853        1.2410654832        2.5501542026
 C         -5.8046185815       -0.6907400213        1.7349967301
 H         -6.7676431259       -1.0652696768        2.0888925272
 H         -5.0531828943       -0.9246709962        2.4933118203
 C         -5.4309212976       -1.4421297397        0.4503132174
 H         -5.1957581489       -2.4761576920        0.7137426402
 H         -6.2705364201       -1.4401459259       -0.2443022429
 H         -5.4222194435        2.5530545932       -0.5227320661
 H         -6.9510326195        2.3298599897       -1.3744223955
 H         -5.3048012645        1.1774606298       -2.6182889215
 H         -6.2927903035       -0.0626477665       -1.8267166067
 O         -3.1993329470        0.7389217147       -1.6376533243
 C         -1.9177411299        0.3572210490       -1.2629497467
 O         -1.0112719205        1.0105328836       -1.8135557617
 H          1.8814953277        0.2728853194       -0.7014870989
 C          1.4588081256        0.6023157587        0.2323804953
 C          0.3203055660        0.0014037710        0.7444724915
 C         -0.2115940076        0.4818362469        1.9398553855
 C          0.3739045382        1.5449501593        2.5975291221
 C          1.5076115126        2.1482186037        2.0808009916
 C          2.0455398953        1.6775671536        0.8888575810
 N          3.1829065372        2.2827818084        0.3465282849
 S          4.2218388004        1.5160054695       -0.6962757717
 O          5.4262814764        2.3188890749       -0.6400736164
 O          3.6349121294        1.3648233727       -2.0041783619
 C          4.5571909093       -0.0933416116        0.0012095931
 C          4.7602392712       -1.1492553708       -0.8640760678
 C          5.0710522220       -2.3964019391       -0.3458937528
 C          5.1689530923       -2.5671388161        1.0258752604
 C          4.9636923353       -1.4970943253        1.8827979103
 C          4.6604971635       -0.2460613646        1.3694386145
 H          4.5014000849        0.5994001283        2.0181325334
 H          5.0395334659       -1.6322794052        2.9497083957
 H          5.4065189502       -3.5391806796        1.4281962196
 H          5.2326143711       -3.2286879618       -1.0122375332
 H          4.6637136785       -0.9726317467       -1.9237057834
 H          3.6293009952        2.9890869766        0.9102111701
 H          1.9646630772        2.9844909100        2.5873282805
 H         -0.0516295084        1.9081641504        3.5207746609
 H         -1.0996100900        0.0110965464        2.3388937630
 C         -0.3882666926       -1.1377598992        0.0567730716
 H         -0.5481791272       -1.9362975678        0.7958023801
 C          0.3629279581       -1.7132490531       -1.1233477379
 C          1.4969023983       -2.6645495376       -0.8903916356
 C          0.1992444236       -3.1672546641       -1.4461065636
 H          0.1604697392       -3.4632657694       -2.4836800413
 H         -0.4442212725       -3.7485807779       -0.8020698564
 H          2.3512924459       -2.6127975291       -1.5472373159
 H          1.7428997895       -2.9076732733        0.1320684322
 H          0.4384134366       -1.0226451756       -1.9560821147
 O         -2.8009888619       -2.2787301865        1.0608117931
