  62
        -98.93827909
 C         -0.3392108876       -1.7458630761       -0.9787717445
 C         -1.4753128087       -2.1857725030       -0.2575874024
 C         -2.6974836874       -1.3717095875       -0.3597064882
 C         -2.6726927007       -0.2407645344       -1.0879837679
 C         -3.7548700650        0.7750374414       -1.3900501768
 C         -5.0395253759        0.8127756790       -0.5676574498
 C         -4.8527373707        1.2270548052        0.8912786433
 H         -4.5563388180        2.2789220855        0.9217321135
 H         -5.8181659670        1.1395119561        1.3953685896
 C         -3.8120748659        0.4357133170        1.6809263335
 H         -3.8064924115        0.8227676228        2.7043418888
 H         -2.8113757563        0.6160828941        1.2802115642
 C         -4.0541350692       -1.0708180925        1.7586872702
 H         -5.0578530540       -1.2627293769        2.1444361568
 H         -3.3347514985       -1.4761813780        2.4756448556
 C         -3.8769575719       -1.8436690647        0.4399522245
 H         -3.6796497109       -2.8908133652        0.6883005897
 H         -4.7834787710       -1.8148873637       -0.1606985995
 H         -5.5546253250       -0.1413957096       -0.6271955503
 H         -5.6898358926        1.5549041558       -1.0391668340
 H         -4.0214034675        0.6250007299       -2.4422972015
 H         -3.2672896075        1.7534517243       -1.3309384505
 O         -1.5570762194        0.1465435527       -1.7670473862
 C         -0.3648342509       -0.5655855653       -1.7210211481
 O          0.5489152331       -0.0401035951       -2.3803924389
 O         -1.4730987318       -3.2379473162        0.4394046203
 C          0.9343894212       -2.5539953119       -0.8018078543
 C          1.6610727316       -2.0731045750        0.4298917163
 C          2.2147539131       -2.9588704703        1.3466471069
 C          2.8388227659       -2.4871062952        2.4886945856
 C          2.8930540710       -1.1303317409        2.7551176978
 C          2.3374304985       -0.2380018315        1.8457580607
 C          1.7575761678       -0.7123565002        0.6803922024
 H          1.3450006715       -0.0091497615       -0.0251184201
 N          2.3415830337        1.1472393527        2.0688229733
 S          0.9794748191        2.0241071262        1.6287738058
 O          1.0308462470        3.2073007786        2.4656859034
 O         -0.2243624114        1.2332172941        1.7411341164
 C          1.2484455157        2.5188779082       -0.0578838052
 C          0.1388505349        2.7923675873       -0.8308894665
 C          0.3167845900        3.2169558395       -2.1365607109
 C          1.5979793890        3.3633135263       -2.6424077016
 C          2.7026431369        3.0902901668       -1.8515187941
 C          2.5312420702        2.6668215014       -0.5437445692
 H          3.3681853834        2.4345889999        0.0940439531
 H          3.6977514900        3.1976310187       -2.2525648613
 H          1.7344161964        3.6835075189       -3.6632971821
 H         -0.5431602475        3.4161486268       -2.7558784038
 H         -0.8403121813        2.6441986142       -0.4017556744
 H          2.7006578713        1.4398866016        2.9661984774
 H          3.3505308055       -0.7642752489        3.6615653534
 H          3.2670203547       -3.1845134789        3.1925899222
 H          2.1346659375       -4.0217904691        1.1722630747
 H          0.5998952488       -3.5852788483       -0.6042165855
 C          1.8207881063       -2.5858440428       -2.0372566297
 C          3.0883222203       -1.7993271132       -2.1533252237
 C          3.1462719129       -3.2876573194       -1.9983915558
 H          3.4363440440       -3.8866861936       -2.8481777824
 H          3.4771721459       -3.6774864711       -1.0478932284
 H          3.3178231888       -1.3612967775       -3.1120349284
 H          3.3802026924       -1.1851332174       -1.3159325851
 H          1.2384402893       -2.6938215164       -2.9463171834
