  62
        -98.94379271
 C         -1.2902940030       -1.4222004743        0.6001844074
 C         -2.0924375180       -1.0291185736       -0.4998201730
 C         -3.1467761392       -0.0463351701       -0.2064631872
 C         -3.2786034549        0.4355977566        1.0416338366
 C         -4.2734931322        1.4777001371        1.4611197666
 C         -3.6772704285        2.8885381481        1.3612423801
 C         -2.9901836002        3.1830233271        0.0270749110
 H         -2.6536930955        4.2221280788        0.0603101831
 H         -2.0888378639        2.5699109977       -0.0599364109
 C         -3.8788800326        2.9742179399       -1.2072556126
 H         -3.7305665822        3.8162307861       -1.8867661495
 H         -4.9289322192        2.9768094988       -0.9112877219
 C         -3.5782252903        1.7030562963       -2.0037332533
 H         -4.0892239941        1.7774351598       -2.9675821563
 H         -2.5048012818        1.6454699193       -2.2047459622
 C         -4.0182166401        0.3864569797       -1.3511069480
 H         -5.0620418268        0.4596897437       -1.0391527316
 H         -3.9372094585       -0.4011297426       -2.1060234180
 H         -2.9368790637        3.0108701027        2.1554540262
 H         -4.4772464714        3.6129745437        1.5269741600
 H         -5.1590771243        1.4009300393        0.8332576770
 H         -4.5558976703        1.2863978800        2.4980324288
 O         -2.4756650865        0.0545593807        2.0675901982
 C         -1.4418384527       -0.8448526352        1.8625922416
 O         -0.7330551764       -1.0461308078        2.8701966647
 H          0.6048603122        0.1164789126       -0.0837020110
 C          1.0262441323       -0.5554554046       -0.8153460997
 C          0.7283134904       -1.9097164698       -0.7432140669
 C          1.2427961933       -2.7516294166       -1.7197288062
 C          2.0255629096       -2.2373955790       -2.7399914896
 C          2.3263470990       -0.8889166357       -2.8014216978
 C          1.8124593481       -0.0376998591       -1.8292385925
 N          2.0741777567        1.3401271287       -1.8482134825
 S          2.1761402819        2.1847602407       -0.4114122855
 O          0.8653532519        2.3892236580        0.1528584853
 O          2.9058981177        3.3860397054       -0.7580137708
 C          3.1788011202        1.1598691544        0.6514266263
 C          2.6406876312        0.5570193368        1.7695064714
 C          3.4455775213       -0.2697384781        2.5381652204
 C          4.7678986635       -0.4772716409        2.1792724831
 C          5.2979884989        0.1440345722        1.0582629278
 C          4.4974810229        0.9679949707        0.2851934606
 H          4.8760824840        1.4760981484       -0.5867042049
 H          6.3283914920       -0.0146146814        0.7842231764
 H          5.3875702443       -1.1249465810        2.7790527276
 H          3.0245156059       -0.7500900956        3.4072882610
 H          1.6066887515        0.7287404055        2.0274442028
 H          2.7543073929        1.6455491322       -2.5276642287
 H          2.9363982619       -0.4937763786       -3.5989066162
 H          2.4111179887       -2.9001115351       -3.4997981587
 H          1.0150996817       -3.8045406112       -1.6977757409
 C         -0.1122779625       -2.3656141523        0.4258363398
 H          0.4960011516       -2.2196981875        1.3350428234
 C         -0.4723497852       -3.8434406988        0.3845700162
 C         -1.7820010736       -4.3399601126        0.9189146773
 C         -1.5049025992       -4.3921630647       -0.5520399151
 H         -1.3250984875       -5.3569487028       -1.0037110995
 H         -2.0107830736       -3.6914698482       -1.1964728348
 H         -2.4867743623       -3.6044197773        1.2799355748
 H         -1.7901538357       -5.2637297017        1.4781220070
 H          0.3888669807       -4.4748226318        0.5801543562
 O         -1.9449533141       -1.4647058910       -1.6706541643
