  62
        -98.93446739
 C          2.4439341114        1.1176933336        0.1346881790
 C          2.6843464044       -0.0035586963       -0.6918293263
 C          4.0897468335       -0.4303322716       -0.8251513324
 C          5.0534975271        0.2509661633       -0.1774850110
 C          6.5581395695        0.0770730231       -0.1628187867
 C          7.2014896785       -1.2084800496       -0.6765360561
 C          6.9074555570       -2.4516498423        0.1622121853
 H          7.3334065303       -3.3171121546       -0.3499896659
 H          7.4165688745       -2.3503448117        1.1239855271
 C          5.4321615351       -2.7206920522        0.4487020378
 H          5.3693868084       -3.6309903630        1.0511331222
 H          5.0209338098       -1.9083867705        1.0515308833
 C          4.5505414923       -2.9185484033       -0.7829379925
 H          4.9700608974       -3.7050321113       -1.4132096948
 H          3.5699873191       -3.2546886037       -0.4348601345
 C          4.3264884458       -1.6647531264       -1.6463580500
 H          5.1456757719       -1.5118762226       -2.3448075682
 H          3.4171535436       -1.8187476237       -2.2346950781
 H          8.2823014975       -1.0444747642       -0.6545480788
 H          6.9302372346       -1.3767534700       -1.7144641244
 H          6.9593438867        0.9183192403       -0.7387854934
 H          6.8653093875        0.2410935517        0.8748770039
 O          4.7698001860        1.3387624294        0.5992265304
 C          3.4759943295        1.7896976527        0.7851934280
 O          3.3772961672        2.7761422031        1.5432611264
 H         -1.5027843304        0.8439534678       -0.4713133851
 C         -1.1159957169        0.2629603609        0.3489287987
 C          0.1441375176        0.5168814493        0.8653667237
 C          0.5960797199       -0.2597482136        1.9297976098
 C         -0.1880940221       -1.2700162670        2.4508194429
 C         -1.4488888019       -1.5165162801        1.9359244451
 C         -1.9114905185       -0.7451095551        0.8773187569
 N         -3.1774172194       -0.9812808238        0.3178426165
 S         -4.0714982491        0.3395229429       -0.2354202879
 O         -3.6610929129        0.6569464576       -1.5797998605
 O         -4.0068192650        1.4176411802        0.7254013198
 C         -5.7084708169       -0.3689197908       -0.2582998547
 C         -6.0929954005       -1.1235367151       -1.3505759401
 C         -7.3531066252       -1.7002772267       -1.3559110796
 C         -8.2027845233       -1.5146287312       -0.2753683775
 C         -7.8037950640       -0.7531681793        0.8128551639
 C         -6.5443919982       -0.1745634284        0.8252349777
 H         -6.1950884275        0.4331281289        1.6444859949
 H         -8.4677575573       -0.6079414020        1.6497309129
 H         -9.1832967108       -1.9638844171       -0.2828110616
 H         -7.6677908093       -2.2906039114       -2.2013317685
 H         -5.4022663748       -1.2325187856       -2.1705077211
 H         -3.7419698142       -1.6114987989        0.8707968211
 H         -2.0639111035       -2.3035982172        2.3451493367
 H          0.1810243433       -1.8666849759        3.2716504502
 H          1.5773360509       -0.0603967049        2.3400595073
 C          1.0274568900        1.6211389881        0.3366027741
 H          1.0877521270        2.4043114982        1.1078167802
 C          0.5087027657        2.2424558047       -0.9435616623
 C         -0.5250342063        3.3257309093       -0.8931204846
 C          0.8861082724        3.6532301211       -1.2766546103
 H          1.0969883616        3.9018131701       -2.3058681336
 H          1.5012221670        4.1821915947       -0.5629939951
 H         -1.2892354184        3.3431632388       -1.6563191061
 H         -0.8763525649        3.6367427840        0.0796346433
 H          0.4593835158        1.5308282302       -1.7606042810
 O          1.7713237188       -0.6230964466       -1.2979889187
