  62
        -98.94419971
 C         -1.6550593962       -1.4379055475        0.3820616279
 C         -1.7800983075       -0.2272979051        1.1143101466
 C         -3.0365167488        0.5142578531        0.9488070653
 C         -4.0044383808       -0.0043656296        0.1720680745
 C         -5.3292617496        0.6452937363       -0.1026141411
 C         -5.2753643583        1.5155986867       -1.3657134468
 C         -4.0861728255        2.4752058543       -1.4025306142
 H         -3.1634017395        1.8949657407       -1.4762613152
 H         -4.1708791016        3.0623282154       -2.3194747076
 C         -3.9955159323        3.4201833905       -0.1961825726
 H         -4.9584513235        3.4648062640        0.3137475352
 H         -3.7736891477        4.4266513801       -0.5569098760
 C         -2.9019437908        3.0561193307        0.8098466943
 H         -1.9610693555        2.8992620519        0.2770391239
 H         -2.7651466474        3.9051768469        1.4849327356
 C         -3.1764457928        1.8209623297        1.6778813545
 H         -2.4310977170        1.7980862420        2.4785446168
 H         -4.1644277603        1.9039834676        2.1356212757
 H         -6.2061205836        2.0818715863       -1.4340402794
 H         -5.2128627219        0.8587513221       -2.2364077485
 H         -6.0728888766       -0.1407259934       -0.2454364952
 H         -5.6155885502        1.2494257609        0.7562103949
 O         -3.8635726664       -1.1779567415       -0.4903260143
 C         -2.6836685967       -1.9084515604       -0.4351061560
 O         -2.7061149601       -2.9303171071       -1.1489261072
 H          2.1628879009       -1.2071225143        0.7958014312
 C          1.8857931269       -1.3437548945       -0.2377022074
 C          0.6321216916       -1.8414524410       -0.5610751185
 C          0.3094445173       -2.0283475231       -1.9011393295
 C          1.2246957374       -1.7150511553       -2.8890466078
 C          2.4698916651       -1.2059010612       -2.5638310675
 C          2.8052003161       -1.0217980618       -1.2273849209
 N          4.0715438185       -0.5384970178       -0.8726906188
 S          4.2979682927        0.4684826783        0.4413335360
 O          5.6241248415        1.0102283634        0.2402329944
 O          4.0913325803       -0.2619335756        1.6658693767
 C          3.0874831259        1.7641780903        0.2618867202
 C          1.9601944791        1.7820362560        1.0554152034
 C          1.0261789002        2.7889361718        0.8705988751
 C          1.2302477750        3.7529246514       -0.1031696641
 C          2.3720428858        3.7245898350       -0.8911328977
 C          3.3095941235        2.7220385867       -0.7097552136
 H          4.2165462078        2.6762061112       -1.2906420092
 H          2.5311707290        4.4795742366       -1.6442474530
 H          0.4977992502        4.5322465109       -0.2457808776
 H          0.1411635489        2.7917104535        1.4863150800
 H          1.8089605020        1.0203780905        1.8024135618
 H          4.6575747849       -0.2720524030       -1.6497969500
 H          3.1813615436       -0.9611442949       -3.3375493051
 H          0.9641162351       -1.8652236343       -3.9259199032
 H         -0.6620520608       -2.4220146238       -2.1580374857
 C         -0.3427789599       -2.1860350894        0.5403270252
 H          0.0859468799       -1.8196775626        1.4835859204
 C         -0.4968542810       -3.6910419522        0.6448019236
 C          0.5973502167       -4.4860986143        1.2890169806
 C         -0.7181053977       -4.3167201144        1.9873905302
 H         -1.3814118100       -5.1657929007        2.0562259507
 H         -0.7586051760       -3.6611830383        2.8453767028
 H          0.8407153246       -5.4538222300        0.8780398792
 H          1.4500840542       -3.9461296814        1.6736554456
 H         -1.0097877835       -4.1316501986       -0.1998626044
 O         -0.8804037956        0.2088513503        1.8807196581
