  62
        -98.93015735
 C          2.2950387230       -0.0023667079        0.4077054977
 C          3.3286961262        0.7654426846       -0.1800672816
 C          4.5931058184        0.0551903675       -0.4672204372
 C          4.7034432791       -1.2551565556       -0.1852366931
 C          5.8353727407       -2.2360583054       -0.4114324424
 C          7.2391322994       -1.7449602518       -0.7555255677
 C          7.9457999979       -0.9896586273        0.3696170640
 H          8.8885447107       -0.5995323294       -0.0200476863
 H          8.1831399115       -1.6978808673        1.1675059371
 C          7.1534960238        0.1566580831        0.9931753932
 H          7.7691555290        0.5985553367        1.7814822616
 H          6.2540101592       -0.2367008959        1.4714690705
 C          6.7559172726        1.2754132949        0.0323432429
 H          7.6433776679        1.6532625630       -0.4789676009
 H          6.3420022698        2.0912508673        0.6311113255
 C          5.7037386379        0.8988017661       -1.0248104364
 H          6.1611326546        0.4130088323       -1.8831775455
 H          5.2372823906        1.8224700144       -1.3795205929
 H          7.2171613869       -1.1466601900       -1.6614870196
 H          7.8334112520       -2.6352609644       -0.9785684692
 H          5.4944817670       -2.9004147214       -1.2132091947
 H          5.8823232175       -2.8483635552        0.4947910389
 O          3.6680290785       -1.9597946226        0.3618383893
 C          2.4630484101       -1.3620479121        0.6753735192
 O          1.6292295412       -2.1359950979        1.1895873602
 O          3.2252090823        1.9837554912       -0.4711236079
 C          0.9390765644        0.5684880877        0.7858765069
 C         -0.0310780403        0.4992013398       -0.3651116437
 C          0.3176493073        0.9350702856       -1.6397716513
 C         -0.6015070355        0.8843468543       -2.6716957948
 C         -1.8856811933        0.4182812138       -2.4510964902
 C         -2.2410396281       -0.0266493532       -1.1831949029
 C         -1.3098437586        0.0063663703       -0.1543777493
 H         -1.5953978454       -0.3576506979        0.8217666593
 N         -3.5289647301       -0.5218069211       -0.9265259451
 S         -4.2080143640       -0.1987812025        0.5864678616
 O         -3.9258960925        1.1662476556        0.9686771757
 O         -3.7891841674       -1.2200851645        1.5132801884
 C         -5.9409083310       -0.3954910427        0.2166627407
 C         -6.6989127359        0.7189547881       -0.0898136976
 C         -8.0381843443        0.5519292941       -0.4055091074
 C         -8.5925195178       -0.7192517880       -0.4125261510
 C         -7.8191331491       -1.8280653309       -0.1018105367
 C         -6.4797654587       -1.6683194643        0.2160647834
 H         -5.8417914991       -2.4978628673        0.4734137316
 H         -8.2542430027       -2.8144333446       -0.1050537401
 H         -9.6348392581       -0.8465765691       -0.6586661818
 H         -8.6429982908        1.4119768542       -0.6436880076
 H         -6.2274496689        1.6882236083       -0.0626185529
 H         -4.1786577771       -0.3457010416       -1.6806582982
 H         -2.6052057830        0.3920268859       -3.2552867025
 H         -0.3189715510        1.2257385171       -3.6562409830
 H          1.3102310453        1.3242261181       -1.8079537286
 H          0.5543640307       -0.1004339260        1.5737064487
 C          1.0198566647        1.9648297024        1.3895355360
 C          0.5558063586        3.2016936876        0.6877657210
 C         -0.2319349240        2.6593774527        1.8400817071
 H         -0.2149155528        3.1941474906        2.7780605371
 H         -1.1785503948        2.1827697874        1.6255092910
 H          1.1348064743        4.1015264669        0.8283812683
 H          0.1427780874        3.1013624751       -0.3033094368
 H          1.8903478772        2.0752396964        2.0288621029
