  62
        -98.93030251
 C         -2.4941806990       -1.3200946446       -0.2148050545
 C         -2.1323609096       -0.0394448300       -0.7020241807
 C         -3.2445401590        0.9083579168       -0.8929625152
 C         -4.5049226121        0.5166896074       -0.6365385093
 C         -5.7182946522        1.3936615647       -0.7419607447
 C         -6.0199282771        2.0859701621        0.5945398455
 C         -4.8041912046        2.7632230754        1.2272379119
 H         -5.1415626243        3.2434396747        2.1482539093
 H         -4.0764226327        1.9992712003        1.5109439635
 C         -4.1191422398        3.8035276830        0.3300855192
 H         -4.7956264581        4.1064937820       -0.4698292820
 H         -3.9024352077        4.6923406597        0.9263092820
 C         -2.7928728136        3.3428480212       -0.2782871041
 H         -2.2933851140        4.2152227457       -0.7085832886
 H         -2.1410155896        2.9517800575        0.5077500354
 C         -2.8963989293        2.2852413216       -1.3845559768
 H         -3.6070171896        2.6155877251       -2.1452322186
 H         -1.9098480943        2.1965155448       -1.8499811480
 H         -6.3968694570        1.3370668233        1.2946943609
 H         -6.8060025742        2.8251688800        0.4306886558
 H         -5.5558069899        2.1365708078       -1.5202580973
 H         -6.5697562976        0.7697039495       -1.0184118818
 O         -4.8148125134       -0.7299608540       -0.1976399388
 C         -3.8238370792       -1.6661612672        0.0378696787
 O         -4.2469710698       -2.7603978824        0.4639751291
 H          1.1147284666       -1.3182967811       -0.4543251162
 C          0.8341173922       -1.3569315887        0.5804227512
 C         -0.3933492743       -1.8633507113        0.9793323147
 C         -0.7077506466       -1.8282827757        2.3386256878
 C          0.1706410467       -1.3013663964        3.2642751799
 C          1.3916126293       -0.7944831343        2.8570260113
 C          1.7219189374       -0.8254646771        1.5080227099
 N          2.9845866245       -0.3647473460        1.0860114686
 S          3.1709709313        0.5596795736       -0.3154498052
 O          2.5087465832        1.8372305022       -0.1685119669
 O          2.8320249499       -0.2318913516       -1.4680492792
 C          4.9398693619        0.7900291958       -0.2608879979
 C          5.4671717057        2.0085761756        0.1204357714
 C          6.8445679537        2.1568728780        0.1743352003
 C          7.6668018035        1.0884559864       -0.1491547699
 C          7.1229915431       -0.1292340291       -0.5310029044
 C          5.7471684147       -0.2826766949       -0.5886214056
 H          5.2797951575       -1.2060841861       -0.8882770291
 H          7.7653557954       -0.9571938715       -0.7841884920
 H          8.7381036584        1.2058575689       -0.1060573157
 H          7.2697996655        3.1032351992        0.4675395961
 H          4.7888497827        2.8127715079        0.3565906677
 H          3.4805667718        0.0964882122        1.8384852069
 H          2.0813185124       -0.3782300563        3.5760973289
 H         -0.0979394021       -1.2802814223        4.3098326927
 H         -1.6669325293       -2.2121542068        2.6599520620
 C         -1.4597961101       -2.4071197195        0.0613184830
 H         -2.0104956604       -3.1616446801        0.6460463344
 C         -1.0825578810       -3.1204367836       -1.2304961340
 C         -0.2253012419       -2.5751822358       -2.3311327370
 C          0.2547108492       -3.7357915057       -1.5109684404
 H          0.2772737214       -4.7113353585       -1.9738710787
 H          1.0512378783       -3.5656631975       -0.8041904652
 H         -0.5437835969       -2.7663734582       -3.3468585508
 H          0.2325851453       -1.6063371575       -2.2112334297
 H         -1.9425826082       -3.6930072834       -1.5731722917
 O         -0.9547452546        0.3124819747       -0.9669655160
