  62
        -98.94211713
 C         -0.6782376000       -1.8709527503        0.0874421891
 C         -1.4508998205       -1.1633446811        1.0341544092
 C         -2.6929035006       -0.5313875413        0.5489269991
 C         -3.0264548202       -0.6747412508       -0.7471712811
 C         -4.2148131102       -0.0963414809       -1.4683313812
 C         -4.0422045706        1.3974328593       -1.7899154704
 C         -3.4547990013        2.2387392990       -0.6597041398
 H         -2.4760270112        1.8346117892       -0.3931035397
 H         -3.2757896216        3.2428285492       -1.0548203793
 C         -4.3303003117        2.3723889180        0.5842978700
 H         -3.8118873722        3.0439540179        1.2737483105
 H         -5.2724681418        2.8487026078        0.3030547899
 C         -4.6490460615        1.0747865476        1.3292426493
 H         -5.4046920411        0.4987691175        0.8022388188
 H         -5.0861166719        1.3537094669        2.2926031393
 C         -3.4373874712        0.2020226079        1.6389897792
 H         -3.7378014312       -0.5672564026        2.3609343888
 H         -2.6876841316        0.8094570679        2.1590441197
 H         -5.0115669407        1.8029138590       -2.0859409405
 H         -3.3622985704        1.4832516999       -2.6415272801
 H         -4.3078627297       -0.6440756305       -2.4089053414
 H         -5.1203313803       -0.2686864416       -0.8935451315
 O         -2.2588189396       -1.3831860201       -1.6236037212
 C         -1.0665327295       -1.9752419998       -1.2477599711
 O         -0.4662420090       -2.5600806792       -2.1702414912
 O         -1.1156003509       -1.0490491015        2.2450600893
 C          0.6368737401       -2.4810783000        0.5266613392
 C          1.8098421901       -1.8422647192       -0.1802467001
 C          3.0258926504       -2.4975813687       -0.3418994701
 C          4.0863026004       -1.8621362280       -0.9637625694
 C          3.9678083700       -0.5635385878       -1.4256697289
 C          2.7563371297        0.1005899717       -1.2697881489
 C          1.6977485098       -0.5409258190       -0.6466257495
 H          0.7557977395       -0.0246340995       -0.5586934696
 N          2.5835626493        1.4067109318       -1.7405657783
 S          1.4243769088        2.4302547511       -1.1226048582
 O          0.1040302790        2.0026576207       -1.5113047788
 O          1.8303508884        3.7370515915       -1.5958120875
 C          1.6139875582        2.3518332903        0.6488136818
 C          2.8074680479        2.7810198205        1.1963111124
 C          2.9851342575        2.6945570599        2.5672103924
 C          1.9760502075        2.1736469892        3.3637282918
 C          0.7811987178        1.7536302490        2.8009873813
 C          0.5962317682        1.8486767995        1.4313852312
 H         -0.3206267915        1.5252374294        0.9631394508
 H         -0.0023461222        1.3282134284        3.4079547808
 H          2.1190367772        2.0944594087        4.4298360218
 H          3.9102014972        3.0263353101        3.0103988428
 H          3.5676350579        3.1837244311        0.5470802728
 H          3.4146733193        1.8823928823       -2.0550071179
 H          4.7953048500       -0.0718254473       -1.9130766184
 H          5.0222616506       -2.3850248776       -1.0884822694
 H          3.1386782307       -3.5089770988        0.0132252595
 H          0.7233335797       -2.2421351105        1.5984938393
 C          0.6099478808       -3.9890165200        0.3680638485
 C          1.2852216008       -4.8761982102        1.3698751583
 C         -0.2101886592       -4.7998002507        1.3254270378
 H         -0.7641495988       -5.6442829208        0.9438987373
 H         -0.7189326697       -4.2649777913        2.1143115879
 H          1.7603845713       -5.7799400898        1.0189562580
 H          1.7868460704       -4.4044846404        2.2013770986
 H          0.6105907612       -4.2954894495       -0.6718959417
