  62
        -98.94119787
 C          1.6346591088        0.4982860475        0.9443984456
 C          2.8700215023        1.0562331612        0.5344861938
 C          3.9914461271        0.1109037774        0.4111253814
 C          3.7959987542       -1.1934826075        0.6726327019
 C          4.8346830596       -2.2663345367        0.5236671805
 C          4.7975357739       -2.8851021252       -0.8807692948
 C          4.7920030159       -1.8548067335       -2.0101591852
 H          4.7969243886       -2.4059397367       -2.9530756085
 H          3.8574686999       -1.2900268730       -1.9734212125
 C          5.9752810475       -0.8772828409       -1.9837351420
 H          6.7749064361       -1.2796832404       -1.3606793742
 H          6.3718925699       -0.7797937046       -2.9965917600
 C          5.6221572447        0.5325031576       -1.5062126042
 H          6.4665631636        1.1893288827       -1.7319791814
 H          4.7601146474        0.9039010221       -2.0660882533
 C          5.3207496321        0.6730602374       -0.0088491959
 H          6.1291737266        0.2259006873        0.5730460908
 H          5.2812190055        1.7415320203        0.2221545980
 H          3.8936218715       -3.4923051974       -0.9677098992
 H          5.6612895783       -3.5433675202       -0.9907048060
 H          5.8178210989       -1.8428541177        0.7195850451
 H          4.6317120569       -3.0458379676        1.2598776031
 O          2.5961672478       -1.6947124728        1.0611847581
 C          1.4938205238       -0.8703197711        1.1989625211
 O          0.4563549904       -1.4626714979        1.5566702061
 H         -1.9698745895        0.2920872082        0.2841420028
 C         -1.5342874857        0.9412487895       -0.4598736156
 C         -0.3143619586        1.5503555983       -0.2045962554
 C          0.2487648896        2.3633964184       -1.1826087120
 C         -0.4076558446        2.5647800539       -2.3827410342
 C         -1.6380764714        1.9784943538       -2.6231884804
 C         -2.2054115729        1.1582005516       -1.6549658123
 N         -3.4379427848        0.5321719833       -1.8785753756
 S         -4.5074367131        0.2539270238       -0.6247562958
 O         -5.7881783026        0.0922096792       -1.2795760296
 O         -4.4356262561        1.2895783257        0.3791596619
 C         -4.0038257849       -1.3126391973        0.0519314820
 C         -3.7913780853       -1.4386348632        1.4097613311
 C         -3.4180444706       -2.6719161716        1.9191186546
 C         -3.2664423716       -3.7525753480        1.0650779198
 C         -3.4877116906       -3.6109985126       -0.2964742058
 C         -3.8610817898       -2.3805550596       -0.8113497755
 H         -4.0440009445       -2.2324567431       -1.8626856020
 H         -3.3670180916       -4.4549991797       -0.9565611756
 H         -2.9712812374       -4.7100408965        1.4644327431
 H         -3.2399781425       -2.7825472604        2.9767111599
 H         -3.9138360134       -0.5709935291        2.0394640249
 H         -3.9060210887        0.7914915945       -2.7341373710
 H         -2.1552140860        2.1496092398       -3.5552090370
 H          0.0381055549        3.1956038168       -3.1371566624
 H          1.2078476891        2.8216317244       -0.9971359688
 C          0.3660374972        1.3172497276        1.1231631187
 H         -0.3048962264        0.6925409205        1.7285384017
 C          0.5816912843        2.6273962662        1.8557597457
 C         -0.6129542763        3.3344927299        2.4194134285
 C          0.3752691696        2.6814095718        3.3378481425
 H          1.0265631996        3.3105292855        3.9259375782
 H          0.0821860015        1.7690608697        3.8370716290
 H         -0.6406239744        4.4126177289        2.3770374111
 H         -1.5787335846        2.8675781621        2.2891509187
 H          1.3768262975        3.2318801730        1.4409481013
 O          3.0559312910        2.2757222649        0.2797774058
