  62
        -98.94623026
 C         -1.7810186361       -1.3102616312       -0.0716078835
 C         -2.8047390205       -0.6973090598        0.6869443632
 C         -3.3299374935        0.5670249094        0.1527596695
 C         -2.8209199248        1.0597002335       -0.9915635206
 C         -3.2023431026        2.3782050536       -1.5998992972
 C         -2.2980766556        3.5095334191       -1.0884470466
 C         -2.1310524373        3.5278294818        0.4308749700
 H         -1.6086389246        2.6203576141        0.7447415083
 H         -1.4828812083        4.3716469248        0.6790053779
 C         -3.4486000219        3.6467758437        1.2100963665
 H         -3.3223052527        4.3889271057        2.0012714231
 H         -4.2371294374        4.0089489774        0.5494631265
 C         -3.9081497565        2.3517079615        1.8823502776
 H         -4.7253571806        2.5955806486        2.5663858437
 H         -3.0927453722        1.9410630218        2.4840417416
 C         -4.4123640631        1.2528324565        0.9379991909
 H         -5.1734327105        1.6623493939        0.2709815525
 H         -4.8760246997        0.4757661251        1.5529492799
 H         -2.7148934526        4.4623248982       -1.4194150840
 H         -1.3082854072        3.4004538753       -1.5374672761
 H         -3.0982750504        2.3022332276       -2.6834275700
 H         -4.2413412416        2.5960253806       -1.3606425449
 O         -1.8506331706        0.4320480849       -1.7025944367
 C         -1.2956504854       -0.7615954182       -1.2597810968
 O         -0.4027279546       -1.2178365720       -1.9937592838
 O         -3.2471205809       -1.1740216514        1.7679137033
 C         -1.1301617636       -2.5799396609        0.4474257639
 C          0.3476136417       -2.3344660905        0.6333308909
 C          1.3363637863       -3.1991580001        0.1846177747
 C          2.6744762443       -2.8797979925        0.3455599365
 C          3.0558638298       -1.6980819256        0.9528742240
 C          2.0737203141       -0.8326274751        1.4178435854
 C          0.7367316210       -1.1589470332        1.2647555855
 H         -0.0243887525       -0.4776602207        1.6261835751
 N          2.4478771380        0.3860021239        2.0191026440
 S          3.4633540106        1.3676050757        1.1138360627
 O          4.8216223627        0.9102539838        1.2684638601
 O          3.1954243910        2.7135150805        1.5705763017
 C          2.9426620981        1.1594388830       -0.5784664538
 C          1.7025397368        1.6422169562       -0.9470486854
 C          1.2712253778        1.4553394810       -2.2491606751
 C          2.0788483654        0.7842386588       -3.1534700648
 C          3.3201714124        0.3049428782       -2.7681473246
 C          3.7592298374        0.4921126038       -1.4675260593
 H          4.7174691076        0.1363624099       -1.1258670584
 H          3.9433941288       -0.2195389028       -3.4744447354
 H          1.7294829282        0.6289452979       -4.1616555358
 H          0.2990027604        1.8097040098       -2.5521636723
 H          1.0969198439        2.1598378806       -0.2184342864
 H          1.6603431527        0.9222902247        2.3540972572
 H          4.0921866641       -1.4262852275        1.0719077297
 H          3.4316055556       -3.5584156425       -0.0161342040
 H          1.0607944801       -4.1191080921       -0.3038008855
 H         -1.5804540858       -2.7622835683        1.4345967838
 C         -1.4430350432       -3.7537811767       -0.4554789132
 C         -1.4956666482       -5.1436896756        0.1028977082
 C         -2.7604900298       -4.4511786466       -0.3042484155
 H         -3.2717604008       -4.7870393394       -1.1938704695
 H         -3.4235968516       -4.0955148940        0.4709695851
 H         -1.1404446914       -5.9593141439       -0.5086226496
 H         -1.3033941236       -5.2671680403        1.1579911823
 H         -1.0612173307       -3.6174154631       -1.4608216673
