  62
        -98.93905378
 C         -1.9906832003       -0.5499805906       -0.5785678550
 C         -1.0487714001       -1.2935013981       -1.3326089545
 C         -0.4682113188       -2.4767489700       -0.6841080238
 C         -0.8538065541       -2.7935449769        0.5642450669
 C         -0.2984982126       -3.9156977654        1.3944409536
 C          1.0460349370       -3.4866944321        2.0170812315
 C          2.2585015982       -4.2633702854        1.4994402595
 H          3.1503933381       -3.7228710802        1.8243873344
 H          2.2769023160       -5.2476067717        1.9732518867
 C          2.3253578632       -4.4719528517       -0.0166585296
 H          3.3437361011       -4.7899441737       -0.2495917192
 H          1.6682339865       -5.2947317802       -0.3025251308
 C          1.9828240421       -3.2439310919       -0.8697899611
 H          2.1248925519       -2.3321107294       -0.2869278495
 H          2.6814456790       -3.2013752818       -1.7079481292
 C          0.5586595970       -3.2548665747       -1.4593051480
 H          0.2208522361       -4.2867073497       -1.5882434445
 H          0.5804404191       -2.7895408679       -2.4492854245
 H          1.1837499681       -2.4171057252        1.8361941934
 H          1.0005751298       -3.6110711257        3.1006673509
 H         -1.0256570340       -4.1295972993        2.1784863505
 H         -0.1730838830       -4.8052519399        0.7808632185
 O         -1.7627329814       -2.0637844285        1.2566234655
 C         -2.2969857259       -0.8907146309        0.7405572332
 O         -3.0261917242       -0.2811221502        1.5450225508
 O         -0.6897948689       -0.9672690642       -2.4973975185
 C         -2.4699804262        0.7708566292       -1.1651336117
 C         -2.0703794036        1.8500362026       -0.1908428516
 C         -2.9485310662        2.7034149437        0.4596336058
 C         -2.4758672637        3.5719262430        1.4301246755
 C         -1.1406222737        3.5846537705        1.7892450827
 C         -0.2515814412        2.7390543983        1.1322960172
 C         -0.7179791982        1.9199064839        0.1215923877
 H         -0.0308684261        1.2651307302       -0.3904202267
 N          1.1090802552        2.7042054861        1.4654033821
 S          2.0286096682        1.3201040550        1.2529055159
 O          1.2572833935        0.1055495685        1.3789682709
 O          3.1180250599        1.4784999257        2.1946986964
 C          2.6760895938        1.5086838329       -0.3952050739
 C          2.3187672680        0.6371891910       -1.4031032026
 C          2.8379551325        0.8303078218       -2.6739796362
 C          3.7044444741        1.8848333830       -2.9134466638
 C          4.0601831532        2.7494893756       -1.8885070944
 C          3.5421528469        2.5623582019       -0.6179949301
 H          3.7982128791        3.2043950449        0.2081849621
 H          4.7362647759        3.5676346061       -2.0774303473
 H          4.1041514369        2.0318276253       -3.9043785066
 H          2.5492818118        0.1569637529       -3.4652307104
 H          1.6360252941       -0.1724536424       -1.1955374707
 H          1.3633241011        3.2095127466        2.3006415207
 H         -0.7882605201        4.2306986291        2.5789520738
 H         -3.1662362913        4.2277774392        1.9389936234
 H         -4.0021313648        2.6639156003        0.2363405266
 H         -1.8611796072        0.8929862754       -2.0768958589
 C         -3.9201073783        0.8259078060       -1.6106745175
 C         -4.6309446557       -0.4161445751       -2.0570573310
 C         -5.0552116807        0.2795497282       -0.8001623234
 H         -5.9903154844        0.8208837450       -0.8092991011
 H         -4.8224127317       -0.1753573849        0.1487322948
 H         -5.2743278936       -0.3614715185       -2.9223580702
 H         -4.0984308479       -1.3518792828       -1.9636825159
 H         -4.1269184170        1.7270440509       -2.1805438341
