  62
        -98.93830283
 C          1.8713525322        0.7602042281       -0.2459069650
 C          2.4683871156        0.1308518390        0.8704954657
 C          3.5548885157       -0.8201984731        0.5837286877
 C          3.8915130814       -1.0689473841       -0.6936385011
 C          4.9318669562       -2.0262667524       -1.2194455175
 C          6.2853848095       -2.0699721323       -0.4967649899
 C          6.7484919490       -0.7317109092        0.0973848337
 H          7.7697075863       -0.5320915549       -0.2324176883
 H          6.1214749469        0.0801147355       -0.2751602255
 C          6.7394959548       -0.7229310875        1.6279725592
 H          7.1493547857       -1.6699605481        1.9859241695
 H          7.4015175945        0.0725794707        1.9783646502
 C          5.3742385101       -0.4925093109        2.2746156764
 H          5.0567152237        0.5407400922        2.1101995150
 H          5.4862365673       -0.6252800049        3.3533996026
 C          4.2443512189       -1.4105134233        1.7802177137
 H          4.6104697319       -2.4147161917        1.5806240495
 H          3.4879595239       -1.4660960211        2.5680438507
 H          6.2520027656       -2.8170781370        0.2950913890
 H          7.0195313828       -2.4184931456       -1.2251617317
 H          4.4974157496       -3.0303846849       -1.2268101085
 H          5.0827844799       -1.7351967629       -2.2617780299
 O          3.2614314458       -0.4681628878       -1.7426338612
 C          2.2469369290        0.4579471387       -1.5539676243
 O          1.7746356651        0.9238634362       -2.6072321174
 O          2.0992695221        0.3419295883        2.0576895250
 C          0.7597901700        1.7679487174       -0.0153953759
 C         -0.5212274261        1.2729112972       -0.6402422474
 C         -1.3157088000        2.0409857641       -1.4801289365
 C         -2.4743806972        1.5133744381       -2.0253694314
 C         -2.8714536893        0.2214097116       -1.7372242615
 C         -2.0948956262       -0.5483331006       -0.8791243309
 C         -0.9360695340       -0.0183660797       -0.3346788095
 H         -0.3302707470       -0.6210541302        0.3308205379
 N         -2.5020858462       -1.8547732286       -0.5599292205
 S         -4.1143196614       -2.0964845868       -0.1800474571
 O         -4.1276971404       -3.2392378500        0.7063660165
 O         -4.8832086911       -2.2340381619       -1.3919335877
 C         -4.6183648325       -0.6215796257        0.6890047469
 C         -5.6367796912        0.1612489857        0.1849507668
 C         -5.9897320772        1.3186693456        0.8603466685
 C         -5.3181144265        1.6734121072        2.0197020745
 C         -4.2992407238        0.8742430990        2.5157518166
 C         -3.9440397623       -0.2852169280        1.8461984830
 H         -3.1585428094       -0.9288159842        2.2094527021
 H         -3.7769065503        1.1510225465        3.4175560377
 H         -5.5890423627        2.5774101942        2.5418279398
 H         -6.7829155535        1.9407161923        0.4782023162
 H         -6.1291921029       -0.1500010847       -0.7218523537
 H         -1.8950210506       -2.3265688732        0.0936590382
 H         -3.7607314520       -0.2087905474       -2.1685301400
 H         -3.0748815880        2.1170432833       -2.6883362075
 H         -1.0229012268        3.0496077844       -1.7195374793
 H          0.6161131516        1.7962163140        1.0750736281
 C          1.1803256881        3.1436072501       -0.4863647596
 C          0.5949398039        4.3685086036        0.1484469172
 C          2.0195678874        3.9920821784        0.4198879369
 H          2.8061600561        4.5899976374       -0.0155213584
 H          2.2673143767        3.5870751845        1.3903890290
 H          0.4039884202        5.2302591762       -0.4729116247
 H         -0.1255227723        4.2251812701        0.9391845178
 H          1.4059934741        3.1704840472       -1.5464100727
