  62
        -98.93879314
 C         -2.7501983902       -0.0030047932        0.1391095313
 C         -2.2445951511        0.7457467675       -0.9537500486
 C         -1.9808672626        2.1707958577       -0.6866871485
 C         -2.2245688230        2.6785089873        0.5333281816
 C         -1.9952240945        4.1063597475        0.9362982218
 C         -0.6005007047        4.3162685689        1.5389746916
 C          0.5386370158        3.7382715603        0.6987782514
 H          0.4825192270        2.6475013702        0.7057717913
 H          1.4738780456        4.0101935113        1.1939169113
 C          0.5753326651        4.2284032005       -0.7551046085
 H          1.6101393748        4.4589891717       -1.0175443286
 H          0.0005116641        5.1507540499       -0.8537104683
 C          0.0769241761        3.2067953901       -1.7799560786
 H          0.5571434172        2.2407837606       -1.5960618988
 H          0.3870035356        3.5409422706       -2.7745293086
 C         -1.4418869237        2.9922855184       -1.8235311784
 H         -1.6719584131        2.4298513283       -2.7336500785
 H         -1.9494474547        3.9584123379       -1.8782257583
 H         -0.5728346041        3.8405365689        2.5218937816
 H         -0.4457815959        5.3888299791        1.6745987617
 H         -2.1241822053        4.7448607475        0.0641886319
 H         -2.7457279548        4.3719125566        1.6833840119
 O         -2.7071274321        1.9299837066        1.5587642016
 C         -2.9527615806        0.5786679664        1.3927626414
 O         -3.3692177699        0.0061259058        2.4216442314
 H         -0.4355162591       -1.0062147306       -0.4942585791
 C         -0.5525490381       -1.8685076608        0.1434926908
 C         -1.8229541176       -2.2759887023        0.5262758009
 C         -1.9463661963       -3.4062838325        1.3248841008
 C         -0.8234603555       -4.1148333813        1.7178575806
 C          0.4411686140       -3.6908247499        1.3548578005
 C          0.5766045727       -2.5443525897        0.5768436706
 N          1.8540106421       -2.0429224082        0.2754388305
 S          2.0772983204       -0.5319951379       -0.4101722093
 O          1.3404394194        0.4299118612        0.3669427809
 O          1.8363802902       -0.5619633280       -1.8367986093
 C          3.8245998802       -0.3418405460       -0.1137726695
 C          4.2397290598        0.1839985343        1.0943327005
 C          5.5977507097        0.3015327257        1.3442274504
 C          6.5140638200       -0.1099526531        0.3878252602
 C          6.0831831304       -0.6344203835       -0.8213845298
 C          4.7260909905       -0.7527975449       -1.0771649996
 H          4.3455706208       -1.1407054552       -2.0084176296
 H          6.7976006107       -0.9498264026       -1.5646579799
 H          7.5704508499       -0.0181437220        0.5849634801
 H          5.9355407893        0.7125946860        2.2819021904
 H          3.4895991595        0.4954474734        1.8029521007
 H          2.5452602628       -2.7283499474        0.0135074604
 H          1.3187213746       -4.2286534090        1.6770773203
 H         -0.9344501644       -4.9989459715        2.3270529505
 H         -2.9278728059       -3.7209896936        1.6480364609
 C         -3.0346443285       -1.4958786335        0.0790525112
 H         -3.8293591483       -1.6746157645        0.8223063413
 C         -3.5638445282       -1.9609340939       -1.2702637388
 C         -2.7261226075       -2.7007562329       -2.2646963190
 C         -3.8156046666       -3.4173206342       -1.5287401290
 H         -4.7074115264       -3.6952701351       -2.0696223289
 H         -3.5215985358       -4.1207860640       -0.7651243691
 H         -1.7002921272       -2.9109217618       -2.0025858192
 H         -2.8616526079       -2.4629287229       -3.3085463590
 H         -4.2870454490       -1.2625871447       -1.6788164386
 O         -2.0369659607        0.2795156378       -2.1038084587
