  62
        -98.93241871
 C          1.7763952478        1.2624469367        0.3968065482
 C          2.3226770940        0.4370597339       -0.6137674130
 C          3.5456922403       -0.3164295252       -0.2615206643
 C          4.0576744339       -0.2003383380        0.9759163045
 C          5.2838174272       -0.8550365543        1.5602870240
 C          6.5390594177       -0.8794024231        0.6746835635
 C          6.8924713372       -2.2756453711        0.1596815941
 H          7.9590870129       -2.3024192531       -0.0741582175
 H          6.7169960855       -2.9965296794        0.9610411570
 C          6.1344909690       -2.7169193850       -1.0912523060
 H          6.5011721615       -2.1551132337       -1.9530891672
 H          6.3697976954       -3.7694194052       -1.2662040296
 C          4.6138495461       -2.5594553546       -1.0254925805
 H          4.1753333322       -3.2496180532       -1.7496237400
 H          4.2411188673       -2.8520869012       -0.0443741467
 C          4.1250913374       -1.1458777465       -1.3748563681
 H          4.9307238359       -0.5810784807       -1.8533568476
 H          3.3217664099       -1.2094591056       -2.1158877924
 H          6.4192520289       -0.1878214137       -0.1578633661
 H          7.3767094698       -0.5203533239        1.2748409371
 H          5.4888491254       -0.3014356632        2.4795640800
 H          5.0234759960       -1.8725504672        1.8626347605
 O          3.4622773987        0.5640314040        1.9369819974
 C          2.3163873755        1.2944503795        1.6836345953
 O          1.8751067558        1.9153150074        2.6716232899
 O          1.8260722608        0.3210143814       -1.7633669297
 C          0.5260745919        2.0936456747        0.1645691086
 C         -0.5257392062        1.2615032853       -0.5276394009
 C         -1.0983517972        1.5942841456       -1.7473296037
 C         -2.0568785032        0.7743229554       -2.3180455685
 C         -2.4697037199       -0.3837255902       -1.6866252694
 C         -1.9111134106       -0.7199185010       -0.4594696192
 C         -0.9565573480        0.1054787184        0.1133598359
 H         -0.5166604120       -0.1607625587        1.0673176978
 N         -2.3333532399       -1.8884819119        0.1970212900
 S         -3.9743111616       -2.2079420853        0.2552395071
 O         -4.1635262892       -2.9964568123        1.4530152992
 O         -4.3941957361       -2.8278379729       -0.9768399226
 C         -4.7575423050       -0.6136692077        0.4253823589
 C         -5.6268530180       -0.1638373401       -0.5471833828
 C         -6.1975949712        1.0912110743       -0.4074133278
 C         -5.8875248068        1.8718361970        0.6950763169
 C         -5.0150763466        1.4041149491        1.6661654963
 C         -4.4432294988        0.1495835163        1.5324344097
 H         -3.7652838567       -0.2445004912        2.2728219365
 H         -4.7748913117        2.0121124114        2.5237001760
 H         -6.3279849331        2.8506240182        0.8007459888
 H         -6.8779117809        1.4565987949       -1.1595857580
 H         -5.8379575243       -0.8024439913       -1.3893468535
 H         -1.8950182210       -2.0409702472        1.0928309852
 H         -3.1999054354       -1.0419121915       -2.1288698135
 H         -2.4834479107        1.0377398930       -3.2737708148
 H         -0.7736627349        2.4800505231       -2.2672704758
 H          0.1533710432        2.3257691804        1.1761338012
 C          0.7837450137        3.4303927821       -0.5148511860
 C          2.0994342304        4.1321355170       -0.3618427652
 C          1.6992048610        3.5719818392       -1.6920502876
 H          1.4231365099        4.2634375383       -2.4748332548
 H          2.1948430312        2.6837415408       -2.0495921024
 H          2.0965470390        5.2037676058       -0.2300233487
 H          2.8752498954        3.6270200698        0.1955932457
 H         -0.0982289134        4.0632174457       -0.5051055493
