  62
        -98.94266219
 C          2.6549079003        1.2034201996        0.2434843205
 C          2.7428492252        0.3330659473       -0.8700478277
 C          3.8655658626       -0.6147356494       -0.8508821244
 C          4.7430859547       -0.6007482444        0.1681300845
 C          5.9538297555       -1.4824724961        0.3104808603
 C          5.6558417088       -2.8609344263        0.9159504755
 C          4.9152474236       -3.8296521861       -0.0067532435
 H          5.4391702866       -3.8929487018       -0.9609829751
 H          4.9653165960       -4.8161701636        0.4582420317
 C          3.4419554100       -3.4722504385       -0.2484278751
 H          2.8273247911       -4.3688761989       -0.1420323261
 H          3.1080931888       -2.7643611139        0.5139072699
 C          3.1499067618       -2.8849191498       -1.6293311693
 H          2.0873314880       -2.6324689121       -1.6759395513
 H          3.3524688388       -3.6349479691       -2.3971820091
 C          3.9523263928       -1.6196500519       -1.9598535883
 H          3.5224949615       -1.1648036826       -2.8557004813
 H          4.9921958109       -1.8751227441       -2.1621599716
 H          5.0816058177       -2.7219935712        1.8348091488
 H          6.6135087846       -3.3111095987        1.1872334871
 H          6.4333298930       -1.6061597561       -0.6609648300
 H          6.6435370994       -0.9568244008        0.9743635157
 O          4.6342470476        0.2638255126        1.2114702223
 C          3.5839965366        1.1607650218        1.2876221201
 O          3.5905014520        1.8674957647        2.3153502138
 O          1.9442414978        0.3377319387       -1.8439195974
 C          1.5388014665        2.2272594696        0.3837180089
 C          0.2408275507        1.5223514997        0.6978473907
 C         -0.1367430830        1.3325240962        2.0235881569
 C         -1.3165910936        0.6822169317        2.3357082867
 C         -2.1415177866        0.2021319535        1.3335012210
 C         -1.7688861405        0.3773327143        0.0078535438
 C         -0.5891917041        1.0400039643       -0.3030501344
 H         -0.3007491964        1.1548901959       -1.3363592097
 N         -2.5941612105       -0.1279100380       -1.0149169195
 S         -4.1860972758        0.4070729917       -1.0536833675
 O         -4.6061616145        0.2650778577       -2.4307607911
 O         -4.3122837025        1.7255858692       -0.4760008558
 C         -5.0638421711       -0.7786181112       -0.0564197455
 C         -5.0318205237       -2.1049367987       -0.4404643678
 C         -5.7164660914       -3.0385683310        0.3209532395
 C         -6.4197399693       -2.6322293743        1.4453751499
 C         -6.4451106754       -1.2963438354        1.8155984179
 C         -5.7616054788       -0.3574450707        1.0585540643
 H         -5.7498909847        0.6912311196        1.3095281005
 H         -6.9931793174       -0.9823684394        2.6894196331
 H         -6.9517645559       -3.3611263175        2.0361824158
 H         -5.6999156280       -4.0781615622        0.0358397976
 H         -4.4783537866       -2.3777876137       -1.3235237971
 H         -2.1759460274       -0.0575982727       -1.9318985102
 H         -3.0617173606       -0.3074174981        1.5691025852
 H         -1.5972150122        0.5469229995        3.3691837727
 H          0.5118613215        1.6974810764        2.8078505198
 H          1.8054689683        2.8373101568        1.2569804770
 C          1.4396020023        3.1369358311       -0.8246692053
 C          0.6312728476        4.3941337369       -0.7219268563
 C          2.1262002386        4.4676354903       -0.7986784831
 H          2.5790734767        4.8311646051       -1.7089436321
 H          2.6711242892        4.7324530265        0.0957433872
 H          0.0535527441        4.7088854085       -1.5777418846
 H          0.1596025456        4.6063828584        0.2258967655
 H          1.4310750330        2.6070480849       -1.7683484372
