  62
        -98.94565315
 C          1.4824545217        1.3498843703       -0.6704142670
 C          2.7747132076        1.2228380877       -0.0960771188
 C          3.5608619505        0.0550385625       -0.5026147795
 C          3.0488316855       -0.8115982576       -1.3946822830
 C          3.7254464763       -2.0494840597       -1.9175705497
 C          3.5624889358       -3.2720070048       -1.0041369873
 C          4.3867403855       -3.2335440625        0.2834491128
 H          4.3545239743       -4.2364428481        0.7138740598
 H          5.4275385279       -3.0151063944        0.0415578224
 C          3.8780294959       -2.2325952922        1.3306402962
 H          2.8479910758       -1.9503056370        1.0957761982
 H          3.8572329607       -2.7125197246        2.3120680290
 C          4.7256813649       -0.9668020472        1.4639861301
 H          5.7187611722       -1.2297998999        1.8353320006
 H          4.2503803209       -0.3150654859        2.2016907815
 C          4.8850167793       -0.1707718501        0.1621964212
 H          5.3048320510        0.8076925725        0.4082440603
 H          5.5675614673       -0.6859826510       -0.5132960996
 H          2.5037779765       -3.3828629493       -0.7549448842
 H          3.8637210249       -4.1519332480       -1.5776476373
 H          3.2627103077       -2.2751056238       -2.8807385553
 H          4.7855591277       -1.8505184894       -2.0777128367
 O          1.8247744545       -0.6388614773       -1.9523511428
 C          0.9950056072        0.4108235174       -1.5791741617
 O         -0.1115916831        0.3850270118       -2.1523426871
 O          3.2516820833        2.0584215133        0.7186790219
 C          0.6477730554        2.5198428388       -0.1744923236
 C         -0.1176721028        2.0907667704        1.0561327044
 C          0.0778051628        2.7277041502        2.2750409064
 C         -0.5814926564        2.2875785038        3.4092336803
 C         -1.4283947581        1.1970903030        3.3491915939
 C         -1.6343528025        0.5533938138        2.1317556689
 C         -1.0000999362        1.0205355104        0.9906421657
 H         -1.1534866967        0.5160296391        0.0514304413
 N         -2.4932997623       -0.5481290613        2.0588576332
 S         -2.3458845674       -1.7751713783        0.9283141026
 O         -2.9048854010       -2.9314146997        1.6009524945
 O         -0.9911784412       -1.9160241214        0.4514693735
 C         -3.4776851085       -1.2772011833       -0.3523817416
 C         -4.8245146087       -1.3430437203       -0.0458654024
 C         -5.7518084001       -0.9522984861       -0.9963644514
 C         -5.3194396789       -0.5027091677       -2.2356307328
 C         -3.9663944810       -0.4449706176       -2.5277270897
 C         -3.0309295135       -0.8355299261       -1.5799266598
 H         -1.9724203105       -0.7846341955       -1.7856461142
 H         -3.6227624285       -0.0939090495       -3.4878328224
 H         -6.0396816435       -0.1964510863       -2.9779762036
 H         -6.8050361181       -0.9981214193       -0.7707677766
 H         -5.1156864001       -1.7109802133        0.9238989298
 H         -2.8266171552       -0.8914961227        2.9469410578
 H         -1.9240394388        0.8363732451        4.2376690448
 H         -0.4203179191        2.7867139033        4.3527290920
 H          0.7701593840        3.5542646689        2.3350086377
 H          1.3754067184        3.2819652654        0.1379918566
 C         -0.2741395661        3.1343591193       -1.2062533914
 C         -0.7115453021        4.5566587037       -1.0289577146
 C          0.2530779347        4.1990268465       -2.1187576260
 H         -0.0893771015        4.2135107332       -3.1422872389
 H          1.2869565482        4.4899345413       -2.0014402355
 H         -1.7212600670        4.8208786147       -1.3024839501
 H         -0.3315605828        5.0951814047       -0.1740681073
 H         -0.9884273691        2.4359565155       -1.6207249452
