  62
        -98.94465857
 C          1.0989045335        1.3622792723        0.3931701366
 C          1.4054761710        0.5307088722       -0.7118843696
 C          2.3395662862       -0.5739459213       -0.4383895862
 C          2.8289873162       -0.7571062036        0.8002804187
 C          3.7634519032       -1.8539359308        1.2356647370
 C          5.2433550407       -1.5601230898        0.9547371881
 C          5.6556363317       -1.6427523452       -0.5154889892
 H          6.7470438789       -1.6340520353       -0.5432396254
 H          5.3274569153       -2.5958018166       -0.9316454000
 C          5.1321178586       -0.4919079115       -1.3862196630
 H          5.9404136251       -0.1155490467       -2.0172169661
 H          4.8147986405        0.3348166612       -0.7465464014
 C          3.9762642609       -0.8715057365       -2.3122862889
 H          3.6611445643        0.0241773039       -2.8539452204
 H          4.3188137212       -1.6041560294       -3.0466295037
 C          2.7493678710       -1.4424872601       -1.5894262929
 H          1.9171550912       -1.4742035679       -2.2986396831
 H          2.9525042338       -2.4578062880       -1.2480830031
 H          5.4831715145       -0.5684297927        1.3449178732
 H          5.8321599721       -2.2894427403        1.5156604487
 H          3.4814883745       -2.7913875621        0.7545410565
 H          3.6354698976       -1.9616043741        2.3151185189
 O          2.4985375956        0.0542587358        1.8395271974
 C          1.6479300361        1.1309480548        1.6590237488
 O          1.4585551316        1.8053268900        2.6904046224
 O          0.9393861067        0.6726136833       -1.8729204535
 C          0.1622591016        2.5572897535        0.3158511727
 C         -1.2731956275        2.1390726799        0.5347425249
 C         -1.9961243596        2.6693367909        1.5973730992
 C         -3.3165468995        2.3130037340        1.8009047452
 C         -3.9354854362        1.4140689657        0.9525952114
 C         -3.2212558118        0.8724936272       -0.1109096509
 C         -1.8974770265        1.2369366453       -0.3172530591
 H         -1.3584003324        0.8157362392       -1.1518147356
 N         -3.8437723285       -0.0357423139       -0.9832717039
 S         -3.0502231098       -1.4337129291       -1.4437709546
 O         -2.0679512803       -1.1519092475       -2.4555482663
 O         -4.1190721140       -2.3305686214       -1.8319397305
 C         -2.2812496563       -2.0313079840        0.0499094939
 C         -3.0945153409       -2.5733422182        1.0265089677
 C         -2.5224566539       -3.0075247769        2.2104277654
 C         -1.1534696848       -2.8884065815        2.3989913240
 C         -0.3514435701       -2.3450652617        1.4081128922
 C         -0.9185480763       -1.9100366185        0.2205047464
 H         -0.3243768574       -1.4811510703       -0.5703891258
 H          0.7132099770       -2.2476790170        1.5528371775
 H         -0.7056793520       -3.2217643541        3.3218685428
 H         -3.1415495055       -3.4349597910        2.9824884538
 H         -4.1517518422       -2.6620851509        0.8362312436
 H         -4.8050316286       -0.2382205373       -0.7478814775
 H         -4.9661129001        1.1328643022        1.1063565333
 H         -3.8663202910        2.7341159236        2.6285466597
 H         -1.5095371477        3.3581964562        2.2719101786
 H          0.4462929462        3.2068600714        1.1555507338
 C          0.2900120643        3.3592327103       -0.9644669333
 C         -0.1140915918        4.8017057591       -0.9580771102
 C          1.3341712857        4.4287698581       -1.0584251955
 H          1.8430602830        4.5691577117       -2.0002691140
 H          1.9632786003        4.5906092894       -0.1948270646
 H         -0.6040680506        5.2015683706       -1.8325413207
 H         -0.4648194426        5.2205686995       -0.0269421878
 H          0.0872805266        2.7834292406       -1.8576585814
