  62
        -98.94421019
 C         -2.0505803359       -1.2974360518       -0.1032976267
 C         -2.4400498069       -0.2539474156       -0.9777853614
 C         -3.8410355909        0.1749862139       -0.8717017661
 C         -4.6669682712       -0.4325228159       -0.0011501055
 C         -6.1250810471       -0.1225978528        0.2024512005
 C         -6.3861578455        1.0502410103        1.1574096189
 C         -6.0513935495        2.4329530692        0.5965006047
 H         -6.5404162875        2.5602501660       -0.3698199498
 H         -6.4823726329        3.1684468847        1.2787076320
 C         -4.5484016493        2.7126825070        0.4558530399
 H         -3.9849708664        1.9957839946        1.0578789455
 H         -4.3236516074        3.7058721308        0.8513212950
 C         -4.0265955987        2.6692511843       -0.9805053773
 H         -4.4829677933        3.4745413724       -1.5605819383
 H         -2.9470699290        2.8406712269       -0.9572129155
 C         -4.2806794157        1.3407462321       -1.7048587445
 H         -5.3351177976        1.2491163111       -1.9643603934
 H         -3.6908934718        1.3341652247       -2.6247950093
 H         -5.8210293236        0.8842464641        2.0774659660
 H         -7.4483338446        1.0326452571        1.4121019394
 H         -6.5953934955        0.0788827092       -0.7603784311
 H         -6.5768098514       -1.0205946951        0.6293900657
 O         -4.2581183414       -1.4454236703        0.8081581856
 C         -2.9431008975       -1.8780374006        0.8008753191
 O         -2.6954835880       -2.7789756427        1.6271231823
 H          1.0027132165       -0.0502068220       -1.4396493924
 C          1.0240370786        0.1072734403       -0.3732434103
 C          0.2619949847       -0.6975244491        0.4586412698
 C          0.2907399627       -0.4559533346        1.8293311609
 C          1.0617976762        0.5653102921        2.3521622622
 C          1.8181672203        1.3704424827        1.5179288794
 C          1.7886917510        1.1417065166        0.1494346415
 N          2.5713324833        1.9494463568       -0.7007100711
 S          4.2153188277        1.9524414722       -0.3755290931
 O          4.4828292032        2.8277167029        0.7378297193
 O          4.8598729687        2.2970903006       -1.6228787755
 C          4.5701408492        0.2636552582        0.0773155450
 C          4.5120861427       -0.6989416665       -0.9110888964
 C          4.7037661480       -2.0265297690       -0.5662532566
 C          4.9421806191       -2.3676966171        0.7564004311
 C          4.9990707393       -1.3895049801        1.7367154327
 C          4.8081636369       -0.0595490851        1.3973662910
 H          4.8425927033        0.7314219786        2.1283215136
 H          5.1856208771       -1.6583183926        2.7639556445
 H          5.0848187772       -3.4030200194        1.0233869986
 H          4.6606725153       -2.7901662801       -1.3262103138
 H          4.3305632413       -0.3960970861       -1.9298667270
 H          2.4037454556        1.7711752020       -1.6806343055
 H          2.4282802523        2.1712601665        1.9037075926
 H          1.0746526891        0.7379599974        3.4176310324
 H         -0.3081200888       -1.0795787638        2.4789571535
 C         -0.6168542407       -1.8026785144       -0.0733337046
 H         -0.6036592214       -2.6249197174        0.6542273353
 C         -0.1751878939       -2.3350769895       -1.4208676558
 C          1.0976890173       -3.1209450815       -1.5138138600
 C         -0.2231226325       -3.8095666345       -1.6783759959
 H         -0.5091419155       -4.1508677086       -2.6621061638
 H         -0.5736614796       -4.4451515647       -0.8784212355
 H          1.6478205274       -3.2846577728       -0.5995559317
 H          1.7197906018       -2.9919783876       -2.3862689732
 H         -0.4302713038       -1.6805458251       -2.2450559284
 O         -1.6724347258        0.2923152047       -1.8124482281
