  62
        -98.93715503
 C         -2.4026866281       -1.1962750749       -0.1051187199
 C         -3.1852376503       -0.4640896926       -1.0327519188
 C         -4.5099382599       -0.0354907749       -0.5517857430
 C         -4.8997842138       -0.3472672261        0.6964534543
 C         -6.1930802993        0.0803713872        1.3260835017
 C         -6.0343677566        1.4137417337        2.0701676552
 C         -5.3443372762        2.5020423726        1.2476344522
 H         -5.3161095246        3.4045197130        1.8621020325
 H         -4.3087343103        2.2067990289        1.0635909056
 C         -6.0277149138        2.8155999283       -0.0907314742
 H         -6.0797122862        3.8997276628       -0.2111622190
 H         -7.0522073354        2.4418017288       -0.0801359926
 C         -5.3003120895        2.2658115118       -1.3190723042
 H         -5.7407569799        2.7245724834       -2.2082546941
 H         -4.2490851329        2.5620929312       -1.2846227494
 C         -5.3662914746        0.7451509171       -1.5091854393
 H         -6.4046905274        0.4120649177       -1.4570638518
 H         -4.9814814096        0.5188195885       -2.5078588787
 H         -7.0240398421        1.7579708471        2.3760167044
 H         -5.4419304294        1.2385653229        2.9712539356
 H         -6.4999261418       -0.6884403798        2.0372896023
 H         -6.9544436432        0.1715070297        0.5538817912
 O         -4.1240600209       -1.0574631426        1.5560224398
 C         -2.8639674393       -1.4864572625        1.1818057450
 O         -2.2552468340       -2.1200195595        2.0693292226
 O         -2.8181673376       -0.1714033518       -2.1980605020
 C         -1.0121850667       -1.7215867113       -0.4222746439
 C          0.0392477754       -0.6816018809       -0.1381797721
 C         -0.0319686481        0.5967332778       -0.6838466834
 C          0.9606112613        1.5258712724       -0.4295744974
 C          2.0437043784        1.2005931957        0.3696368272
 C          2.1165196917       -0.0673230769        0.9277531236
 C          1.1183661637       -0.9963337830        0.6745755384
 H          1.1829432002       -1.9819972024        1.1172438296
 N          3.2475743550       -0.4054071617        1.7172130348
 S          4.5484768514       -0.9138199006        0.7685773455
 O          4.0988670211       -1.7586338525       -0.3164924894
 O          5.4959232837       -1.5081233439        1.6850765336
 C          5.1920686658        0.6133893089        0.1275951058
 C          4.9531413953        0.9532285132       -1.1892164545
 C          5.4360189717        2.1622236601       -1.6650993617
 C          6.1437080185        3.0037036512       -0.8201341427
 C          6.3761469056        2.6460532327        0.4998773960
 C          5.8954375534        1.4394410784        0.9825552717
 H          6.0548250713        1.1182061265        1.9984813558
 H          6.9277622194        3.3032310462        1.1526918792
 H          6.5170603668        3.9442819263       -1.1933707312
 H          5.2558559103        2.4427372630       -2.6903685222
 H          4.3958873195        0.2687451859       -1.8084913161
 H          3.0446927448       -1.1334376984        2.3898964938
 H          2.8189404867        1.9205421411        0.5751425916
 H          0.8923222466        2.5128468078       -0.8608258095
 H         -0.8715891227        0.8478644876       -1.3143339728
 H         -0.8534684831       -2.5498573412        0.2872593385
 C         -0.8927303290       -2.3133394091       -1.8205980489
 C         -0.1463028555       -1.6710837761       -2.9464949486
 C          0.4164526332       -2.8873484645       -2.2786810101
 H          0.4119781130       -3.8253249268       -2.8134168388
 H          1.2768238740       -2.7521313317       -1.6377755620
 H         -0.5644915331       -1.7649495684       -3.9369416572
 H          0.3390050031       -0.7250995764       -2.7684089156
 H         -1.7851479248       -2.8673271405       -2.0952332621
