  62
        -98.93953335
 C         -1.7808437399       -0.9876083399       -0.2952622811
 C         -3.1415855099       -1.2370668803       -0.0016985314
 C         -4.1000838100       -0.1969410401       -0.4109872607
 C         -3.6481647101        0.9104463504       -1.0245739598
 C         -4.4399260102        2.0760919507       -1.5629783890
 C         -5.5990448703        2.6045034699       -0.7074339187
 C         -5.3802653104        2.5122548088        0.8097479613
 H         -4.3394492804        2.2632137787        1.0234396212
 H         -5.5805911906        3.4875567984        1.2571459120
 C         -6.2981054403        1.4896835981        1.4838610804
 H         -6.3637451505        1.7244648773        2.5490180606
 H         -7.3018799203        1.5901332183        1.0652485504
 C         -5.8522543201        0.0325468183        1.3686838993
 H         -6.6436900401       -0.5955881222        1.7846240888
 H         -4.9603966002       -0.1317466821        1.9794365293
 C         -5.5367179200       -0.4527887206       -0.0556321810
 H         -5.6625735998       -1.5388123606       -0.0753038419
 H         -6.2159127300       -0.0127891401       -0.7817177507
 H         -6.5149239002        2.0754760000       -0.9669014892
 H         -5.7489572104        3.6476344201       -0.9910737179
 H         -4.8215543000        1.7991782614       -2.5501569292
 H         -3.7057329602        2.8709362609       -1.7147851083
 O         -2.3243213501        1.1115635807       -1.2823492096
 C         -1.3620121800        0.1785317306       -0.9316114402
 O         -0.1983053100        0.5032414410       -1.2328846699
 O         -3.5404069898       -2.2854571008        0.5724639877
 C         -0.7417555098       -2.0277595401        0.0808309882
 C          0.3142263701       -1.4134255107        0.9647885487
 C         -0.0847270301       -0.7567628616        2.1273350792
 C          0.8445782598       -0.1767812721        2.9677716397
 C          2.1941998998       -0.2320236817        2.6634503698
 C          2.6040596800       -0.8890868508        1.5106939993
 C          1.6672450301       -1.4848272603        0.6751704388
 H          2.0172609702       -1.9834418295       -0.2124565916
 N          3.9706773300       -0.9890406604        1.1895315593
 S          4.5333419001       -0.4621702392       -0.2963582002
 O          3.8781595102       -1.1829483184       -1.3557268608
 O          5.9701188601       -0.6133915090       -0.2139771302
 C          4.1281296898        1.2745817108       -0.3488007189
 C          2.8317055998        1.6657488509       -0.6168278387
 C          2.5292112496        3.0191269408       -0.5921456577
 C          3.5146926795        3.9498075207       -0.3031765169
 C          4.8120416595        3.5382680607       -0.0359997071
 C          5.1221128297        2.1886368707       -0.0537063881
 H          6.1167244297        1.8224291607        0.1437694817
 H          5.5787295794        4.2629798206        0.1862798835
 H          3.2696131194        5.0002518607       -0.2879429561
 H          1.5165418996        3.3260701209       -0.8011932175
 H          2.0708766099        0.9353837910       -0.8436518293
 H          4.5846256899       -0.6477498009        1.9161772497
 H          2.9231154197        0.2250024279        3.3155181902
 H          0.5179691096        0.3279909071        3.8644310001
 H         -1.1398845701       -0.7080869719        2.3605708191
 H         -1.2839485097       -2.7846265606        0.6672537775
 C         -0.1861341796       -2.6881882791       -1.1631622723
 C          0.3494275206       -4.0861190291       -1.0971184133
 C         -0.9500012994       -3.8131613487       -1.7917653832
 H         -0.9840298693       -3.8751266179       -2.8692084333
 H         -1.8648008294       -4.1219024492       -1.3071144836
 H          1.2129498107       -4.3333767385       -1.6963990735
 H          0.3181710406       -4.5882371098       -0.1419109937
 H          0.3061324404       -1.9872791985       -1.8293274217
