  62
        -98.94038418
 C         -2.3146638140       -0.8203676044        0.1763972677
 C         -3.0390596173       -0.0456492845        1.1204812939
 C         -3.8990981007        1.0140008014        0.5798075676
 C         -3.9458578111        1.2028476266       -0.7511355080
 C         -4.8133646177        2.2107849432       -1.4464780221
 C         -6.1755827536        1.6096770774       -1.8198342718
 C         -6.8637865365        0.8774161314       -0.6678596832
 H         -7.8282166433        0.5228292470       -1.0379178305
 H         -6.2762764445       -0.0054306865       -0.4053874458
 C         -7.0806171639        1.7324818368        0.5884629598
 H         -6.9936411664        2.7899481477        0.3364219524
 H         -8.0971023205        1.5685810844        0.9521861010
 C         -6.1350612452        1.4084377208        1.7466242593
 H         -6.5123742139        1.9071813559        2.6432807637
 H         -6.1483227080        0.3330204927        1.9407832198
 C         -4.6769330752        1.8462792843        1.5599767565
 H         -4.6427283500        2.9012263015        1.2802573537
 H         -4.1686224895        1.7282490423        2.5213169343
 H         -6.8203912568        2.4134818093       -2.1797408120
 H         -6.0285387853        0.9001238244       -2.6374704784
 H         -4.9507120696        3.0726068606       -0.7961994346
 H         -4.3055470507        2.5313215519       -2.3577780716
 O         -3.2287136621        0.4547428153       -1.6255116025
 C         -2.3955066205       -0.5717357081       -1.1940372382
 O         -1.8044335195       -1.1517073353       -2.1250353755
 O         -2.9696503627       -0.2391564111        2.3633533163
 C         -1.4321748010       -1.9198507320        0.7409751156
 C         -0.0228721408       -1.4298178654        0.9589851353
 C          0.6313596810       -1.6416683947        2.1665852177
 C          1.9285518178       -1.1955342704        2.3512869332
 C          2.5961565424       -0.5262041133        1.3413693104
 C          1.9518352739       -0.3101793502        0.1299541305
 C          0.6532797201       -0.7639641105       -0.0538470027
 H          0.1611054698       -0.6048392136       -1.0024458606
 N          2.6066906789        0.3878685083       -0.8981008037
 S          4.1787297452       -0.0450982136       -1.2929860175
 O          4.3605620135        0.3900845601       -2.6601843503
 O          4.4268696505       -1.4428014875       -1.0248264619
 C          5.1767724449        0.9705753357       -0.2239424821
 C          6.1599300251        0.3941757496        0.5561558454
 C          6.9311794879        1.2080714750        1.3715164836
 C          6.7074483100        2.5761373217        1.3911808674
 C          5.7176394568        3.1396896137        0.5995382118
 C          4.9439096007        2.3319921744       -0.2183582057
 H          4.1659433150        2.7299347484       -0.8485736877
 H          5.5459095461        4.2039309955        0.6177463403
 H          7.3074454141        3.2074317797        2.0273783937
 H          7.7011317965        0.7721094144        1.9875210566
 H          6.2935043881       -0.6750079904        0.5130364695
 H          2.0440339061        0.4994496044       -1.7293411347
 H          3.6053265740       -0.1748317472        1.4806381686
 H          2.4249650529       -1.3666315483        3.2941210447
 H          0.1124191853       -2.1495377184        2.9661674988
 H         -1.8595495217       -2.1381242851        1.7324604880
 C         -1.4881782438       -3.2082486157       -0.0692768238
 C         -0.3451161897       -3.7315523836       -0.8813856905
 C         -0.7331512355       -4.4201706061        0.3906388820
 H         -1.2153569309       -5.3841447258        0.3333262593
 H         -0.0745532023       -4.3029258718        1.2379390751
 H         -0.5774333411       -4.2031779871       -1.8242114411
 H          0.5765837859       -3.1703051734       -0.8982344200
 H         -2.4783443832       -3.3817140536       -0.4791277113
