  62
        -98.94418598
 C         -1.6027339471       -1.4528121240        0.3792455104
 C         -1.7602835534       -0.2489303062        1.1163864318
 C         -3.0280308309        0.4698862854        0.9372502885
 C         -3.9735499971       -0.0599522386        0.1407672319
 C         -5.3042732054        0.5693328477       -0.1521426432
 C         -5.2427511770        1.4526625528       -1.4058744655
 C         -4.0700672216        2.4330413099       -1.4125577684
 H         -3.1360442614        1.8696168247       -1.4739621882
 H         -4.1483115748        3.0265128146       -2.3259673749
 C         -4.0181956546        3.3688199225       -0.1968165462
 H         -4.9908763834        3.3918845306        0.2958238160
 H         -3.8081843820        4.3823283438       -0.5447430031
 C         -2.9366727228        3.0147782546        0.8256642302
 H         -2.8274693430        3.8595220659        1.5111247533
 H         -1.9834936463        2.8785344650        0.3097004779
 C         -3.2047359784        1.7664285858        1.6763746094
 H         -2.4733601523        1.7486500121        2.4898513612
 H         -4.2020894900        1.8267746074        2.1170002101
 H         -5.1534581518        0.8054559626       -2.2814251892
 H         -6.1818224225        2.0034927014       -1.4855022137
 H         -6.0315096107       -0.2278873548       -0.3157333948
 H         -5.6165671243        1.1602174710        0.7068796358
 O         -3.8017840152       -1.2269236030       -0.5261384451
 C         -2.6121978771       -1.9396949522       -0.4520090302
 O         -2.6089265459       -2.9632597422       -1.1637472933
 O         -0.8803495243        0.1989073978        1.8985583235
 C         -0.2822880930       -2.1823368985        0.5562971950
 C          0.6956830893       -1.8500094263       -0.5459453922
 C          0.4002540053       -2.1044270597       -1.8813262189
 C          1.3209717461       -1.8052572843       -2.8685140249
 C          2.5450563712       -1.2445891673       -2.5479802582
 C          2.8522844531       -0.9908202475       -1.2162971538
 C          1.9270007183       -1.2963305941       -0.2268378706
 H          2.1817927861       -1.1040650913        0.8036570258
 N          4.0967338348       -0.4522806999       -0.8648840034
 S          4.2721950598        0.5878414149        0.4296505044
 O          5.5606922106        1.2071385531        0.2066722457
 O          4.1241358382       -0.1330804735        1.6684396921
 C          2.9823394326        1.8042048228        0.2469019483
 C          1.9306011276        1.8442480775        1.1372122705
 C          0.9375266866        2.7943376584        0.9603307959
 C          1.0097604688        3.6798434694       -0.1026942897
 C          2.0764677253        3.6300155384       -0.9885749619
 C          3.0729860116        2.6847372519       -0.8145714413
 H          3.9247535102        2.6274161740       -1.4727301261
 H          2.1313873583        4.3241787437       -1.8117799252
 H          0.2324583505        4.4157549220       -0.2392700584
 H          0.1089077334        2.8145876970        1.6495398849
 H          1.8863632220        1.1386658287        1.9505010066
 H          4.6832169212       -0.1887581443       -1.6424398891
 H          3.2617335191       -1.0128779122       -3.3209148666
 H          1.0816557488       -2.0082646973       -3.9014894998
 H         -0.5550102576       -2.5376171224       -2.1351146544
 H          0.1370220662       -1.7928990239        1.4944380451
 C         -0.4251132227       -3.6861921443        0.6909126223
 C          0.6716183270       -4.4593039598        1.3570721296
 C         -0.6482973456       -4.2844431748        2.0456185865
 H         -1.3056003231       -5.1368206449        2.1298405397
 H         -0.6979113990       -3.6107190961        2.8888942253
 H          0.9236633378       -5.4340523660        0.9685285206
 H          1.5186488841       -3.9047990871        1.7335520557
 H         -0.9312269564       -4.1483713995       -0.1463440314
