  62
        -98.93763875
 C          2.3131064263       -1.3074533257        0.0780083305
 C          3.3515501894       -0.8733343184       -0.7848945383
 C          4.2348591541        0.1774888483       -0.2651286548
 C          4.0270184416        0.6674524182        0.9700776866
 C          4.8563697373        1.7053849086        1.6789091928
 C          4.8488281550        3.1185111865        1.0644228060
 C          6.0044501599        3.3921697422        0.0938051924
 H          6.3654827946        4.4095550221        0.2573822765
 H          6.8314915187        2.7236606106        0.3359047782
 C          5.6686290905        3.2719194270       -1.3957167624
 H          6.6098054736        3.2426615462       -1.9488934761
 H          5.1285128743        4.1670264585       -1.7125327915
 C          4.8223159142        2.0627268617       -1.7944358839
 H          4.8263010599        1.9883719048       -2.8836616515
 H          3.7826941895        2.2290652296       -1.5011434622
 C          5.2856064857        0.7241407020       -1.1872065452
 H          5.4222185493       -0.0158610365       -1.9780972733
 H          6.2313984807        0.8461755930       -0.6617351903
 H          4.9266586908        3.8233480874        1.8938666108
 H          3.8896577083        3.2983316835        0.5789439638
 H          5.8854888729        1.3452356955        1.7462045997
 H          4.4532020056        1.7559601322        2.6924740594
 O          3.0181411947        0.2241184245        1.7680023843
 C          2.1282591904       -0.7517111333        1.3437895197
 O          1.2523743159       -1.0297670377        2.1869796084
 O          3.5376742017       -1.3518166294       -1.9349135461
 C          1.3617231144       -2.3719195474       -0.4462030108
 C          0.0445975633       -1.7060043385       -0.7596530756
 C         -0.1555840791       -1.1365140513       -2.0139222585
 C         -1.3230973856       -0.4539810611       -2.3007007786
 C         -2.3093535700       -0.3128265604       -1.3398405673
 C         -2.1102071346       -0.8604808214       -0.0801249351
 C         -0.9494698810       -1.5695139292        0.1973976460
 H         -0.8003947206       -1.9754061637        1.1856158505
 N         -3.0959871773       -0.6984019550        0.9113064883
 S         -3.6449223732        0.8646820965        1.1967920131
 O         -2.6481308581        1.8545796080        0.8575482516
 O         -4.1122746710        0.8619019081        2.5661285631
 C         -5.0508032590        1.0155953531        0.1123447546
 C         -6.0555730615        0.0734334855        0.2160487196
 C         -7.1590913348        0.1776338336       -0.6154698766
 C         -7.2409451017        1.2181513479       -1.5289768645
 C         -6.2259953076        2.1583712193       -1.6180806486
 C         -5.1186219007        2.0590879633       -0.7898438858
 H         -4.3022760155        2.7629687516       -0.8273716744
 H         -6.2910986476        2.9669829317       -2.3283044281
 H         -8.1007202386        1.2969723732       -2.1753802752
 H         -7.9504187663       -0.5514869290       -0.5489910789
 H         -5.9542985759       -0.7163077146        0.9414648944
 H         -2.8490167183       -1.1410569976        1.7856494698
 H         -3.2166298334        0.2291507918       -1.5511884844
 H         -1.4660896173       -0.0222053902       -3.2795903936
 H          0.6257964874       -1.2213460134       -2.7559580964
 H          1.8039628772       -2.7113906900       -1.3922460248
 C          1.2394315315       -3.5592648204        0.4851689762
 C          0.6298434286       -4.8279657073       -0.0293684892
 C          2.1002064174       -4.7630544898        0.2513468682
 H          2.4870460864       -5.2923337082        1.1092704189
 H          2.7804937998       -4.7357309849       -0.5871359465
 H          0.0042857194       -5.4055858553        0.6336884124
 H          0.3110618244       -4.8427278825       -1.0605287011
 H          1.0475968652       -3.2853133933        1.5149796392
