  62
        -98.94753116
 C          0.8176175176        1.1484434603        0.5978578994
 C          1.3014492608        0.7924419481       -0.6841010923
 C          2.2164896077       -0.3548980785       -0.7197503825
 C          2.5041952977       -1.0168778344        0.4151265679
 C          3.4547490955       -2.1758854099        0.5442641675
 C          4.9240021704       -1.7533359765        0.6878673980
 C          5.5784242233       -1.2343609802       -0.5933150875
 H          6.6534122216       -1.1889074868       -0.4074471824
 H          5.4177310862       -1.9517128909       -1.3985811310
 C          5.0971505866        0.1544098720       -1.0361668844
 H          4.6051532954        0.6547557264       -0.1987449477
 H          5.9589757072        0.7667161932       -1.3115890574
 C          4.1470896100        0.1460915480       -2.2340663200
 H          4.6710667167       -0.2322582179       -3.1145641716
 H          3.8467781489        1.1769087331       -2.4381755989
 C          2.8737395752       -0.6849703495       -2.0256330231
 H          2.1687594466       -0.4368993083       -2.8225451441
 H          3.1049500004       -1.7480075799       -2.0786927808
 H          4.9961622793       -0.9925948242        1.4686227708
 H          5.4837013165       -2.6287266224        1.0254276241
 H          3.1651440751       -2.7215529906        1.4439732465
 H          3.3534660209       -2.8345337408       -0.3175241118
 O          1.9451789104       -0.6963367370        1.6131431508
 C          1.1099138846        0.4018210161        1.7378680350
 O          0.6941822379        0.6033752095        2.8983339806
 H         -1.5923368126        0.2428947536        0.4233289389
 C         -1.9552042716        1.0676242192       -0.1729095800
 C         -1.2744953565        2.2776614008       -0.1343761827
 C         -1.7577971404        3.3369527101       -0.8914305527
 C         -2.8864094853        3.1757978048       -1.6762841905
 C         -3.5586541183        1.9685457691       -1.7145123601
 C         -3.0866062863        0.9037106741       -0.9542497458
 N         -3.7221945864       -0.3433990128       -0.9945787649
 S         -3.6455757558       -1.4015257965        0.2894961272
 O         -4.6814848738       -2.3735217139        0.0079684359
 O         -3.7554066166       -0.7207701502        1.5590752812
 C         -2.0630685973       -2.2000106597        0.1344423244
 C         -1.3197035157       -2.4499156632        1.2704037646
 C         -0.1259800472       -3.1428579053        1.1521197351
 C          0.3023989604       -3.5682578328       -0.0952350980
 C         -0.4480823066       -3.2966329483       -1.2285720317
 C         -1.6462275827       -2.6108953396       -1.1158589037
 H         -2.2587778324       -2.3888438804       -1.9737197207
 H         -0.1054161759       -3.6212192238       -2.1977438011
 H          1.2252490729       -4.1187554435       -0.1816249821
 H          0.4625286470       -3.3404744541        2.0339481970
 H         -1.6795762063       -2.0884833517        2.2215748682
 H         -4.5985652995       -0.3797508717       -1.4927058079
 H         -4.4373099208        1.8444924666       -2.3287314280
 H         -3.2496507385        4.0043476569       -2.2652504088
 H         -1.2492142117        4.2867863151       -0.8723176878
 C         -0.0591356295        2.3767309773        0.7543097954
 H         -0.4048785455        2.3764335493        1.7992651926
 C          0.7645513891        3.6258372942        0.5120190020
 C          0.4393110995        4.9013420749        1.2276299397
 C          1.6619879825        4.1212313902        1.6044602338
 H          2.6308634242        4.5167258035        1.3386046432
 H          1.6548356029        3.5734380411        2.5360401950
 H          0.5720509968        5.8362464870        0.7042055731
 H         -0.3963235069        4.8922220291        1.9112565697
 H          1.1343236385        3.6871999997       -0.5052704274
 O          0.9990483892        1.4070403109       -1.7391254367
