  62
        -98.94009943
 C          1.5012936096        1.1688041025        0.2138298305
 C          2.5289755500        0.7278832484        1.0809866820
 C          3.1060746526       -0.5979921934        0.8056542452
 C          2.5912715983       -1.3370380606       -0.1920083332
 C          3.0594920728       -2.6847136336       -0.6669393736
 C          4.0632806426       -2.5359767249       -1.8232248578
 C          5.5201970700       -2.3662743432       -1.3938571158
 H          5.8885491273       -3.3134938031       -0.9946215911
 H          6.0992495342       -2.1415663699       -2.2924501484
 C          5.7749717280       -1.2680956714       -0.3580186030
 H          6.8301744154       -0.9938879810       -0.4134248432
 H          5.1960843238       -0.3788563985       -0.6140268317
 C          5.4513434555       -1.7053642655        1.0784606021
 H          5.3199875668       -2.7871305797        1.1004098894
 H          6.3033603040       -1.4837065736        1.7244486271
 C          4.2278638753       -1.0258370534        1.7124534790
 H          4.5420405358       -0.1064800508        2.2171340145
 H          3.8161731209       -1.6806034436        2.4884947698
 H          3.9989893198       -3.4216849094       -2.4584168402
 H          3.7542915345       -1.6781012328       -2.4259309017
 H          3.4844178144       -3.2548536296        0.1540277747
 H          2.1737326588       -3.2077556859       -1.0341319641
 O          1.5631180635       -0.9018388283       -0.9670488503
 C          0.9851170014        0.3419505317       -0.7837553703
 O          0.0468037659        0.5828923384       -1.5671743950
 O          2.9528065686        1.4191967926        2.0479096165
 C          0.8858967144        2.5315945289        0.4765377714
 C         -0.6187270821        2.4268829343        0.4593231388
 C         -1.4483368303        3.2595427281       -0.2803213654
 C         -2.8220289452        3.0874273899       -0.2536267305
 C         -3.3941457723        2.0700258457        0.4868224236
 C         -2.5713921007        1.2307079191        1.2290905176
 C         -1.2024578803        1.4315072754        1.2346504474
 H         -0.5785338290        0.7674200316        1.8163175432
 N         -3.0937058675        0.1465369640        1.9704385114
 S         -2.7192842482       -1.3780610265        1.3757742301
 O         -3.3808703958       -2.3064698196        2.2686756940
 O         -1.2914012460       -1.5187431093        1.2532360791
 C         -3.5212174741       -1.4240012511       -0.2176617837
 C         -4.7749378213       -2.0001533835       -0.3033129775
 C         -5.4480485340       -1.9690965306       -1.5133132409
 C         -4.8630346238       -1.3534432172       -2.6100282537
 C         -3.6069533114       -0.7768911366       -2.5053935295
 C         -2.9232047410       -0.8076339232       -1.2985471433
 H         -1.9419492565       -0.3684088840       -1.1996557857
 H         -3.1456865853       -0.2961396172       -3.3531392775
 H         -5.3876720820       -1.3231127460       -3.5519829301
 H         -6.4240136746       -2.4195596322       -1.5963800682
 H         -5.1871577245       -2.4678065013        0.5763777532
 H         -4.0942696546        0.2006073870        2.1105030430
 H         -4.4631482885        1.9178535033        0.4866754947
 H         -3.4528835400        3.7421113259       -0.8351136947
 H         -1.0204178377        4.0332283971       -0.8961373563
 H          1.1941149748        2.7742081745        1.5080877855
 C          1.4283502735        3.6425097515       -0.4112245411
 C          2.7682694421        3.5220690269       -1.0717864109
 C          1.5204509810        3.4947886618       -1.8995833212
 H          1.2976725826        4.3534522695       -2.5158123785
 H          1.2049553235        2.5550978250       -2.3247780702
 H          3.3986586856        4.3976583585       -1.1139850352
 H          3.3130624974        2.5989244826       -0.9355265542
 H          1.1719381044        4.6272916892       -0.0331866177
