  62
        -98.94062494
 C          2.0124912488        1.2900812619        0.3105046085
 C          1.7431142627        0.3103117522       -0.6717429272
 C          2.3623297353       -1.0169320695       -0.4735253199
 C          3.1056252572       -1.2288774896        0.6285941907
 C          3.7991725028       -2.4923430896        1.0675338863
 C          2.8267810042       -3.5465491092        1.6139093379
 C          1.6132847668       -3.8115948909        0.7274897038
 H          0.9853977902       -4.5444061275        1.2409740170
 H          1.0294043813       -2.8945423298        0.6313132181
 C          1.9387361316       -4.3573883810       -0.6612115022
 H          2.5623854950       -5.2479085652       -0.5589927848
 H          0.9955740678       -4.6648428660       -1.1172721840
 C          2.6266457233       -3.3806316864       -1.6207041878
 H          2.4871845127       -3.7670439012       -2.6340840417
 H          3.7003058712       -3.3455587929       -1.4530032202
 C          2.0561717708       -1.9663731114       -1.6060021942
 H          2.3872169239       -1.4467216161       -2.5127384551
 H          0.9640839388       -2.0095884507       -1.6824355331
 H          3.3802809497       -4.4752708304        1.7649514131
 H          2.4673898133       -3.2072667639        2.5889095291
 H          4.3884868811       -2.9028935553        0.2532764097
 H          4.4879835348       -2.2074424501        1.8662177735
 O          3.3046957237       -0.2590163357        1.5699583036
 C          2.7812278506        1.0115762197        1.4381664367
 O          3.0550925787        1.7875996729        2.3777742993
 H         -0.2512922596        1.1920021766        1.5509491990
 C         -0.7784014891        1.7946738364        0.8206670249
 C         -0.0505391711        2.6419612676       -0.0059508077
 C         -0.7402468992        3.4145495499       -0.9308885377
 C         -2.1185981141        3.3277438165       -1.0290133321
 C         -2.8380635618        2.4772998135       -0.2103920389
 C         -2.1578203297        1.7004510685        0.7200289036
 N         -2.8731094980        0.8370655356        1.5726650925
 S         -3.9239475493       -0.2893173057        0.9211659453
 O         -4.9958975135        0.4010089889        0.2499426218
 O         -4.3025835847       -1.1321912943        2.0323398321
 C         -2.9806294525       -1.2380101570       -0.2579962718
 C         -2.5000136248       -2.4748017166        0.1237991378
 C         -1.7689853355       -3.2206315021       -0.7857171975
 C         -1.5180946147       -2.7115094044       -2.0509781720
 C         -1.9944082773       -1.4610760095       -2.4140067296
 C         -2.7373777316       -0.7158377553       -1.5129190997
 H         -3.1317810164        0.2534895283       -1.7689961086
 H         -1.7853725857       -1.0606660423       -3.3926355319
 H         -0.9528694600       -3.2938483713       -2.7622495689
 H         -1.3979737487       -4.1930065503       -0.5038549040
 H         -2.7222274018       -2.8342642274        1.1158254730
 H         -2.2921300762        0.3915409620        2.2682075998
 H         -3.9105016410        2.3938875680       -0.2819581123
 H         -2.6412961409        3.9328292191       -1.7543058125
 H         -0.1990014199        4.0828866087       -1.5799960086
 C          1.4491246553        2.6900738801        0.1555209905
 H          1.6749289630        3.2157538068        1.0953549560
 C          2.1535029193        3.4029024467       -0.9811967144
 C          2.3477316531        4.8881484246       -0.9419384097
 C          3.5171422018        3.9736516470       -0.7381570544
 H          4.2568863774        3.8963980183       -1.5208067696
 H          3.9245513257        3.8735403728        0.2577003203
 H          2.2886280717        5.4415859274       -1.8670634009
 H          1.9672089633        5.4209617830       -0.0835272344
 H          1.9715329047        2.9331346873       -1.9410720843
 O          1.0164115801        0.5235576431       -1.6762493806
