  62
        -98.94302498
 C         -0.4392569510       -2.0763526104        0.2494777510
 C         -1.1425338407       -1.3370069396        1.2294119106
 C         -2.4802329807       -0.8644929595        0.8503767404
 C         -2.9717439408       -1.1894036202       -0.3588256293
 C         -4.2589193607       -0.6773710302       -0.9387018795
 C         -4.0458119705        0.7532144094       -1.4767936505
 C         -4.8349608801        1.8325208700       -0.7346306411
 H         -4.4387149099        2.7977557297       -1.0579577417
 H         -5.8825482102        1.7832266201       -1.0409635410
 C         -4.7877651200        1.7624820610        0.7949640190
 H         -5.4963665202        1.0117070214        1.1490934395
 H         -5.1408190898        2.7261797513        1.1684110084
 C         -3.4119696801        1.4700157411        1.4081010190
 H         -2.6182821100        1.7591117404        0.7161121788
 H         -3.2977605698        2.0883890216        2.3013759286
 C         -3.2087436204        0.0032713813        1.8377975999
 H         -2.5944115703       -0.0178721283        2.7430011499
 H         -4.1746370405       -0.4456878083        2.0843790003
 H         -4.3251485505        0.7909099788       -2.5313395705
 H         -2.9794563104        0.9897655092       -1.4295943607
 H         -4.5432427210       -1.3485611507       -1.7496005191
 H         -5.0402121307       -0.6908764496       -0.1819588795
 O         -2.2979147911       -1.9673413809       -1.2446414789
 C         -0.9960464112       -2.3785923110       -0.9925889887
 O         -0.4644515614       -3.0004120118       -1.9323463284
 H          0.5212769695        0.0306817989       -0.4557114504
 C          1.4686619993       -0.3386515215       -0.8131047702
 C          1.8895765491       -1.6088052114       -0.4449140994
 C          3.1027287789       -2.0691881320       -0.9422433492
 C          3.8521953590       -1.2782025127       -1.7966669798
 C          3.4219575493       -0.0163597128       -2.1662420406
 C          2.2111194395        0.4549122478       -1.6711430508
 N          1.7130202397        1.7129674077       -2.0328435515
 S          0.6975556500        2.5665550486       -1.0202359820
 O         -0.6097160601        1.9600933989       -0.9749284315
 O          0.7438379403        3.9171999982       -1.5397991528
 C          1.4877879501        2.5153922194        0.5772715080
 C          2.7224219303        3.1257100792        0.6931021075
 C          3.3863278204        3.0745976698        1.9070188375
 C          2.8101145003        2.4118421006        2.9809617780
 C          1.5682117301        1.8114223308        2.8511938684
 C          0.8973245500        1.8640704702        1.6393050584
 H         -0.0651712401        1.3937098703        1.5150001988
 H          1.1130651801        1.2858539514        3.6754990888
 H          3.3301329203        2.3640957311        3.9247651779
 H          4.3504034805        3.5455274996        2.0119085771
 H          3.1343964803        3.6390011385       -0.1604566528
 H          2.3445674398        2.3067231772       -2.5477899619
 H          4.0053860894        0.5919217766       -2.8398897010
 H          4.7887077989       -1.6512010531       -2.1825214696
 H          3.4554200587       -3.0504821919       -0.6697458986
 C          1.0194276190       -2.4087487906        0.4985958011
 H          1.2266062591       -2.0601340000        1.5223880009
 C          1.2768788786       -3.8991622807        0.4328142921
 C          2.3263440585       -4.5257473304        1.3006909824
 C          0.8756478685       -4.7521500198        1.5980130326
 H          0.4504243582       -5.7249346299        1.4022543533
 H          0.4431434587       -4.2511726292        2.4518394524
 H          2.8810650587       -3.8787099301        1.9633190919
 H          2.8997288283       -5.3490833908        0.9020628329
 H          1.1213725284       -4.3042498613       -0.5603953377
 O         -0.6591008806       -1.0594356690        2.3609901804
