  62
        -98.93406081
 C         -2.6142521692       -0.8426287528        0.1902626061
 C         -2.7352791560        0.2213480417        1.1125795200
 C         -3.2621800919        1.4931963437        0.5899530665
 C         -3.5792837879        1.5893794330       -0.7151205782
 C         -4.1693563497        2.7350160974       -1.5105271484
 C         -4.1440182903        4.1608603883       -0.9647250380
 C         -2.7496059315        4.7681035152       -0.8175739428
 H         -2.3290533867        4.9210777291       -1.8145632247
 H         -2.8539935000        5.7478575097       -0.3463269865
 C         -1.7488206506        3.9374826975       -0.0176946166
 H         -1.5439338079        3.0030886314       -0.5450032857
 H         -0.8094923723        4.4956251123        0.0234422673
 C         -2.1636555514        3.6187847501        1.4179012259
 H         -2.4178754336        4.5426248922        1.9407605625
 H         -1.2980731543        3.1782253759        1.9203371121
 C         -3.3350293499        2.6309137902        1.5671792150
 H         -4.2940636756        3.1378941508        1.4940410950
 H         -3.2750297003        2.1844799639        2.5640418500
 H         -4.6818715249        4.2144191545       -0.0227834604
 H         -4.6972633975        4.7755536498       -1.6800114778
 H         -3.6609388386        2.7135116338       -2.4795378223
 H         -5.2117523976        2.4581776267       -1.7034852170
 O         -3.4373778042        0.5345689972       -1.5700495162
 C         -2.9407283422       -0.6907456884       -1.1561931802
 O         -2.8430083744       -1.5364567801       -2.0642977285
 O         -2.4131901430        0.1169155113        2.3280930694
 C         -2.0514331597       -2.1691009288        0.6673564394
 C         -0.7230891075       -2.4252067900       -0.0035248837
 C         -0.4046412244       -3.6072149150       -0.6570527972
 C          0.8357778365       -3.7641189788       -1.2528025628
 C          1.7803685575       -2.7559205920       -1.2110170304
 C          1.4770999954       -1.5726104990       -0.5483473665
 C          0.2376515510       -1.4219987070        0.0540728761
 H          0.0014681328       -0.5018648227        0.5751666780
 N          2.4178766007       -0.5216627788       -0.5107211721
 S          3.9861285458       -0.9078604211       -0.0106413456
 O          4.6435474684       -1.6246836780       -1.0734109761
 O          3.9511362864       -1.5742639419        1.2732112447
 C          4.6930348998        0.7190358209        0.1493965099
 C          5.1020110997        1.3750067406       -0.9960865683
 C          5.6282961781        2.6519091381       -0.8840076433
 C          5.7357289513        3.2479256952        0.3639809113
 C          5.3224808748        2.5761002002        1.5045091021
 C          4.7933445466        1.2991800011        1.3993412271
 H          4.4658733826        0.7372070523        2.2595336204
 H          5.4098628553        3.0406407199        2.4735264271
 H          6.1464839441        4.2416091593        0.4488081703
 H          5.9526877357        3.1771376904       -1.7678197709
 H          5.0071321681        0.8690794559       -1.9425824498
 H          2.0745231936        0.2561721033        0.0379652902
 H          2.7480323826       -2.8719981871       -1.6709551316
 H          1.0691913867       -4.6867800780       -1.7626829025
 H         -1.1272055051       -4.4049633333       -0.7064477814
 H         -1.8643779035       -2.0360547524        1.7436776706
 C         -3.0583389299       -3.2833393939        0.4833614940
 C         -3.0174434636       -4.4876793686        1.3743576302
 C         -4.1169727262       -3.4810547096        1.5251918563
 H         -5.1121596320       -3.7495078978        1.2041426313
 H         -4.0974955801       -2.8257169863        2.3838404055
 H         -3.2597193334       -5.4509716200        0.9516327391
 H         -2.2520223153       -4.5202359134        2.1350575525
 H         -3.3456402045       -3.4199577814       -0.5528240083
