  62
        -98.93445939
 C         -1.6920106812       -0.9804530991        0.0614307546
 C         -3.0482941998       -1.3292603241        0.2704958173
 C         -4.0481126967       -0.2564927938        0.1144468111
 C         -3.6257271563        0.9916102502       -0.1547878036
 C         -4.4414828094        2.2418574863       -0.3667788075
 C         -5.6073153910        2.4797339978        0.6052787148
 C         -6.9835284510        2.3032925987       -0.0389987268
 H         -7.7134466871        2.8810566873        0.5324306907
 H         -6.9524343727        2.7239081818       -1.0463068119
 C         -7.4888291404        0.8632475817       -0.1091984081
 H         -7.7591926673        0.5254450536        0.8936602875
 H         -8.4020518922        0.8621781036       -0.7089834677
 C         -6.5075031999       -0.1456014799       -0.7092383660
 H         -5.9962413210        0.2844265419       -1.5699920033
 H         -7.0856866297       -0.9966433574       -1.0756047814
 C         -5.4798373928       -0.6790369804        0.3002279387
 H         -5.7927159913       -0.4297783503        1.3183223073
 H         -5.4534664365       -1.7723521812        0.2550251401
 H         -5.5348120673        3.5071901231        0.9655739682
 H         -5.5078683112        1.8271538525        1.4712530217
 H         -4.8109597535        2.2427142969       -1.3954324849
 H         -3.7244943949        3.0627037614       -0.2937093198
 O         -2.3042563448        1.2926031294       -0.2989770155
 C         -1.3080537530        0.3334041363       -0.2016900189
 O         -0.1590076352        0.7842688240       -0.3573419298
 O         -3.4140805963       -2.4959292269        0.5771299327
 C         -0.6523662977       -2.0784562686        0.1850331200
 C          0.5148361959       -1.6184778801        1.0223362875
 C          0.2784830920       -1.2300674602        2.3393495576
 C          1.3145677347       -0.8117267360        3.1502082638
 C          2.6114792077       -0.7765743640        2.6674117015
 C          2.8607029307       -1.1668452281        1.3576533054
 C          1.8151361761       -1.5869104710        0.5443568870
 H          2.0354157325       -1.8613273303       -0.4730912658
 N          4.1762827657       -1.1889251605        0.8628720667
 S          4.6058033862       -0.5001819955       -0.5984761865
 O          3.8176576539       -1.0624535851       -1.6636277911
 O          6.0352774904       -0.7091857493       -0.6847756283
 C          4.2832680690        1.2445986383       -0.4115794852
 C          2.9799779018        1.6992747974       -0.4074731362
 C          2.7505860428        3.0532102735       -0.2135640687
 C          3.8144620957        3.9223687916       -0.0300368559
 C          5.1176182348        3.4473595424       -0.0360773382
 C          5.3557539334        2.0959697416       -0.2237070763
 H          6.3509226203        1.6815369670       -0.2373221693
 H          5.9449304192        4.1239920630        0.1061425977
 H          3.6260336957        4.9741857230        0.1182219196
 H          1.7319184973        3.4074302220       -0.2065420225
 H          2.1562518935        1.0175819546       -0.5476256458
 H          4.8763954152       -0.9622865937        1.5550057843
 H          3.4239899323       -0.4533690937        3.3004879753
 H          1.1135842641       -0.5095736989        4.1670373325
 H         -0.7351971735       -1.2570191155        2.7162779027
 H         -1.1670218605       -2.8810445295        0.7404149190
 C         -0.2280746724       -2.6781606446       -1.1472653660
 C         -1.1485192567       -2.6879127899       -2.3298732583
 C          0.0801075379       -1.8311860813       -2.3439412153
 H          0.9107020194       -2.1157025310       -2.9738056566
 H         -0.0351448243       -0.7633444914       -2.2432593361
 H         -1.1716597803       -3.5689069762       -2.9535492841
 H         -2.1076548425       -2.2019478026       -2.2239790946
 H          0.3846874030       -3.5650991429       -1.0140320231
