  62
        -98.94565413
 C         -1.4406693502        1.2616846803       -0.1023726389
 C         -1.5830264112       -0.0382967847        0.4440408015
 C         -2.7368502131       -0.8108750462       -0.0391255853
 C         -3.5596500502       -0.2929548454       -0.9670926374
 C         -4.7581372767       -0.9718017409       -1.5728369732
 C         -6.0327232300       -0.8628624278       -0.7244759738
 C         -6.0486043311       -1.7201099156        0.5419215084
 H         -7.0741046490       -1.7177961302        0.9167539081
 H         -5.7983306186       -2.7498744262        0.2846760886
 C         -5.1153610372       -1.2242441643        1.6552999566
 H         -4.8346660325       -0.1868934183        1.4595431417
 H         -5.6474624170       -1.2382735098        2.6091078684
 C         -3.8438310382       -2.0543065506        1.8336193505
 H         -3.2400098940       -1.5929427226        2.6188827048
 H         -4.1065038399       -3.0633972106        2.1590540002
 C         -2.9790825388       -2.1585093209        0.5707638722
 H         -3.4480653157       -2.8241171997       -0.1540672608
 H         -2.0074956667       -2.5783119531        0.8448303440
 H         -6.1846498766        0.1854150405       -0.4571325358
 H         -6.8701308622       -1.1697527873       -1.3553844507
 H         -4.5293191606       -2.0219587581       -1.7580003959
 H         -4.9394999213       -0.4822041189       -2.5322966482
 O         -3.3761271512        0.9489558532       -1.4895202646
 C         -2.3304948265        1.7499410244       -1.0639990209
 O         -2.2985123065        2.8736335151       -1.6071933863
 O         -0.8071904044       -0.5518572951        1.2916836634
 C         -0.3208148068        2.2182856594        0.2684025067
 C          0.9113823057        2.0134709180       -0.5839153017
 C          1.6775803588        3.1050958055       -0.9788989380
 C          2.8166534724        2.9270572238       -1.7418018923
 C          3.2207871102        1.6580895832       -2.1157367054
 C          2.4608421048        0.5597826335       -1.7300225236
 C          1.3143059357        0.7441660557       -0.9688266632
 H          0.7280409097       -0.1176296868       -0.6952057882
 N          2.8338190741       -0.7352891215       -2.1150227594
 S          2.6283070406       -2.0261381045       -1.0687296006
 O          3.5234243906       -3.0389676194       -1.5904773898
 O          1.2388289756       -2.3969292521       -0.9963433766
 C          3.2481895068       -1.4367898985        0.4957501710
 C          2.3911786672       -1.1090373371        1.5251848298
 C          2.9287248576       -0.6040689952        2.7003680304
 C          4.2980624910       -0.4346416364        2.8244451829
 C          5.1456227373       -0.7752821237        1.7806124811
 C          4.6173427380       -1.2791785415        0.6044712267
 H          5.2417227696       -1.5693495399       -0.2250382744
 H          6.2114660578       -0.6474661254        1.8800505609
 H          4.7065714034       -0.0373363178        3.7402785046
 H          2.2663556466       -0.3430081751        3.5107494329
 H          1.3268638358       -1.2387244348        1.4028229621
 H          3.7154823857       -0.7935026022       -2.6030466024
 H          4.1081910652        1.5160428177       -2.7132000087
 H          3.3977955332        3.7833341964       -2.0479342416
 H          1.3645043344        4.0995168289       -0.6991538355
 H         -0.7059272848        3.2249013682        0.0514906960
 C          0.0674097699        2.1613659780        1.7344659475
 C          0.6005921126        3.3868955204        2.4102443939
 C         -0.7693297394        2.8806302873        2.7473906976
 H         -0.9326693493        2.4115982632        3.7058396085
 H         -1.6223396259        3.4365261998        2.3849819943
 H          1.3867759736        3.2690574176        3.1396474595
 H          0.6711782909        4.2943359754        1.8304886653
 H          0.4832983650        1.2060806655        2.0240097514
