  62
        -98.93939927
 C         -2.2068782111       -0.9069484616       -0.0844659501
 C         -3.1530358867       -0.6386064351        0.9360149274
 C         -3.9877604083        0.5638340853        0.7764602584
 C         -3.8083054912        1.3507162737       -0.3006813903
 C         -4.4648233023        2.6542379949       -0.7052370347
 C         -5.7429259961        3.1309398666       -0.0201013044
 C         -6.9763701611        2.2729522902       -0.3000807744
 H         -7.7978437429        2.6453510222        0.3157002062
 H         -7.2595581939        2.4041609180       -1.3474900658
 C         -6.8082015197        0.7759615455       -0.0524962356
 H         -7.7556715093        0.2884172421       -0.2975414197
 H         -6.0548173094        0.3741006445       -0.7331057779
 C         -6.4423693504        0.3870524314        1.3784840980
 H         -7.1673900676        0.8160091788        2.0727143088
 H         -6.5124460996       -0.7014709221        1.4514435651
 C         -5.0293513447        0.7906002687        1.8342664385
 H         -4.7516306985        0.1529601072        2.6784543214
 H         -5.0041258673        1.8205714584        2.1820347475
 H         -5.5815961168        3.2308137975        1.0491752650
 H         -5.9449822416        4.1345001820       -0.4043496053
 H         -3.6949454465        3.4237734840       -0.5782091420
 H         -4.6439010395        2.5752919082       -1.7823560290
 O         -2.8708058784        1.0624504064       -1.2496092041
 C         -2.0562861648       -0.0558805642       -1.1773178909
 O         -1.2724775258       -0.1636068319       -2.1415216477
 O         -3.2948890138       -1.3761970917        1.9472239413
 C         -1.3276940843       -2.1372201241        0.0773844757
 C          0.0587143328       -1.6842744534        0.4647009786
 C          0.4002964503       -1.5715644302        1.8089663292
 C          1.6421640466       -1.0923044326        2.1835337193
 C          2.5643300827       -0.7040755990        1.2273583283
 C          2.2251858151       -0.7945549190       -0.1156336753
 C          0.9885002450       -1.3006763435       -0.4903029554
 H          0.7299774600       -1.3475481414       -1.5366422181
 N          3.1459746281       -0.3751732475       -1.0945021616
 S          3.7848402851        1.1710914081       -0.9259950133
 O          2.8939129916        2.0415794432       -0.1931656555
 O          4.1388531591        1.5880607258       -2.2655420057
 C          5.2805459286        0.9031605843        0.0046596980
 C          5.4825650956        1.5717577765        1.1960973380
 C          6.6565429870        1.3489198113        1.8991364857
 C          7.6029288191        0.4669917190        1.4004405696
 C          7.3863975091       -0.1942065872        0.2005116096
 C          6.2155584044        0.0248311380       -0.5074145056
 H          6.0098216291       -0.4643346459       -1.4447528511
 H          8.1248555822       -0.8787171531       -0.1846831437
 H          8.5146346152        0.2943561852        1.9502342706
 H          6.8263304946        1.8627762676        2.8316770239
 H          4.7158147242        2.2440866240        1.5472764811
 H          2.8011081097       -0.5025805832       -2.0359853836
 H          3.5299755850       -0.3186479958        1.5112120251
 H          1.8943196368       -1.0152857060        3.2302273370
 H         -0.3284104171       -1.8473429962        2.5579726600
 H         -1.7541133844       -2.6846951357        0.9283239522
 C         -1.3479927237       -3.0403346037       -1.1381983794
 C         -0.8313486732       -4.4413184002       -1.0106687716
 C         -2.3004183626       -4.1962528060       -1.1747573373
 H         -2.7653901053       -4.4494791874       -2.1158111868
 H         -2.9420820793       -4.3425920962       -0.3182715540
 H         -0.2847298835       -4.8666189362       -1.8382443404
 H         -0.4747674993       -4.7524198979       -0.0405002528
 H         -1.1726383502       -2.5186116255       -2.0704405984
