  62
        -98.93792157
 C         -2.4642447696       -0.8757642583        0.7830326202
 C         -3.5220088294       -0.9229195490       -0.1578791199
 C         -4.6334192694        0.0123180513        0.0795587291
 C         -4.5912561795        0.8438027421        1.1354459584
 C         -5.6295260995        1.8779019425        1.4588873274
 C         -5.2923998993        3.2281643819        0.8112455063
 C         -4.9434933991        3.1314712407       -0.6740184835
 H         -4.7556208889        4.1465964004       -1.0305711343
 H         -4.0100506191        2.5747101605       -0.7863239429
 C         -6.0295488290        2.4785839400       -1.5404124132
 H         -6.9820839790        2.4866206405       -1.0092884333
 H         -6.1587784588        3.0738684593       -2.4467971737
 C         -5.7107726490        1.0506602096       -1.9873312419
 H         -6.4271674988        0.7698444490       -2.7640366018
 H         -4.7143044889        1.0207422192       -2.4356245917
 C         -5.7791544092       -0.0216612795       -0.8927242711
 H         -6.7332157493        0.0494779410       -0.3666506813
 H         -5.7281093192       -0.9985746099       -1.3822111303
 H         -6.1450411593        3.8966685521        0.9437015456
 H         -4.4368897894        3.6599279323        1.3357577561
 H         -6.6007785995        1.5297775022        1.1128278375
 H         -5.6635005797        2.0031857034        2.5424529273
 O         -3.5572424197        0.8657022228        2.0145054686
 C         -2.4744565497        0.0204285626        1.8565522095
 O         -1.5937310498        0.1516232833        2.7311593295
 O         -3.5639997493       -1.6991000798       -1.1482212293
 C         -1.2366180696       -1.7701943284        0.6969521012
 C         -0.2572619994       -1.2197028093       -0.3130112691
 C         -0.4928105592       -1.2984742004       -1.6811980291
 C          0.4250385510       -0.7830749212       -2.5785638494
 C          1.5898924810       -0.1812691509       -2.1362195096
 C          1.8321116208       -0.0922912898       -0.7720077597
 C          0.9119080706       -0.6156606790        0.1275901406
 H          1.0956424704       -0.5362649682        1.1911986106
 N          3.0037713307        0.5385609405       -0.3108921200
 S          4.4506278808        0.1000416598       -1.0685756594
 O          4.5621828511        0.8385236087       -2.3012019100
 O          4.5309702508       -1.3389532903       -1.1855084082
 C          5.6498722807        0.6977378206        0.1054005103
 C          6.1759585304       -0.1760966086        1.0378464712
 C          7.0911616103        0.3019403921        1.9624497009
 C          7.4599994404        1.6385990020        1.9406152599
 C          6.9231494906        2.5033478213        0.9982994791
 C          6.0083419307        2.0318728406        0.0703436993
 H          5.5720176509        2.6641573200       -0.6851341913
 H          7.2148672507        3.5410684813        0.9832583283
 H          8.1728868803        2.0077680326        2.6609011797
 H          7.5125515801       -0.3683718873        2.6942347616
 H          5.8679158504       -1.2091961786        1.0118098520
 H          3.0936317705        0.4759484513        0.6944809701
 H          2.3155376011        0.2149955684       -2.8282258198
 H          0.2318585312       -0.8504009221       -3.6389224193
 H         -1.4085089291       -1.7472800607       -2.0330416489
 H         -0.7616858998       -1.7096468577        1.6854788112
 C         -1.5699569796       -3.2227579986        0.4198040723
 C         -0.5412835398       -4.2682518485        0.7245705733
 C         -1.7733255799       -4.1589256577        1.5709651330
 H         -2.5296499599       -4.9244195477        1.4843405135
 H         -1.6732257201       -3.7555597969        2.5683716227
 H         -0.4482568697       -5.1096317690        0.0552662541
 H          0.3964932002       -3.9387180082        1.1465469532
 H         -2.1928003695       -3.3674900693       -0.4521759377
