  62
        -98.94485838
 C         -1.6604014707       -1.2301204202       -0.3982770802
 C         -3.0039628308       -1.3549384002        0.0281927896
 C         -3.8717367008       -0.2060878702       -0.2543260506
 C         -3.3649917308        0.8777021897       -0.8704055006
 C         -4.1262390608        2.1246698197       -1.2317953608
 C         -4.2672156110        3.1297928198       -0.0801825709
 C         -5.2479153111        2.7268002698        1.0219197390
 H         -5.4167418512        3.6110273399        1.6398800189
 H         -6.2051043310        2.4559481297        0.5751470089
 C         -4.7555689611        1.5843977899        1.9213971891
 H         -3.6758239911        1.4670390600        1.8036111093
 H         -4.9374045813        1.8401318200        2.9677812891
 C         -5.4299953511        0.2377006199        1.6607089792
 H         -4.9792025511       -0.5063455901        2.3224510693
 H         -6.4923131111        0.3052557998        1.9060972190
 C         -5.2931499209       -0.2661712703        0.2183230492
 H         -5.9389265008        0.3101765496       -0.4439650409
 H         -5.6081424108       -1.3123622803        0.1903146893
 H         -3.2812969310        3.3023026998        0.3569522092
 H         -4.6095366410        4.0730584097       -0.5120587211
 H         -5.1156314707        1.8553158396       -1.6028521309
 H         -3.5710312907        2.6039513596       -2.0407261208
 O         -2.0674284207        0.9565817697       -1.2678717605
 C         -1.1820609007       -0.0899299502       -1.0457688803
 O         -0.0309014707        0.1133350198       -1.4709405002
 O         -3.4555914608       -2.3757961201        0.6130998097
 C         -0.6946399007       -2.3707866701       -0.1266368800
 C          0.4423760492       -1.8391460200        0.7081798001
 C          0.1660329390       -1.3731641699        1.9912562200
 C          1.1584585089       -0.8092019397        2.7693811501
 C          2.4490152189       -0.6893190897        2.2822853002
 C          2.7334582691       -1.1478227798        1.0038925003
 C          1.7377181192       -1.7303072500        0.2300864402
 H          1.9776490493       -2.0766704000       -0.7625704897
 N          4.0415810591       -1.0178988898        0.4936186904
 S          4.6872850891        0.5272093602        0.4230796104
 O          5.8424987392        0.4130289702       -0.4386852695
 O          4.9406061089        0.9914284303        1.7640350104
 C          3.4350139191        1.5305146601       -0.3512219399
 C          3.3899413093        1.5793333899       -1.7296944699
 C          2.3832971393        2.3058845398       -2.3419876101
 C          1.4365535592        2.9583268499       -1.5690188502
 C          1.4953569690        2.8985449300       -0.1863714002
 C          2.5022018890        2.1769733401        0.4330025700
 H          2.5797052989        2.1076982702        1.5059245200
 H          0.7529532290        3.4031243300        0.4116611096
 H          0.6424881892        3.5098842798       -2.0472847504
 H          2.3306907295        2.3509655697       -3.4180284901
 H          4.1462054894        1.0585860099       -2.2956142397
 H          4.1581573093       -1.4648880399       -0.4052392295
 H          3.2333913288       -0.2356794296        2.8663360603
 H          0.9275293087       -0.4545205297        3.7626997900
 H         -0.8456313511       -1.4510931699        2.3660135999
 H         -1.2587617608       -3.0988093901        0.4729263200
 C         -0.2635163605       -3.0317992902       -1.4181796099
 C          0.2969372395       -4.4217511602       -1.3947051397
 C         -1.0702149404       -4.1737164403       -1.9559972599
 H         -1.2114519403       -4.2466632704       -3.0239699199
 H         -1.9273736805       -4.4916031503       -1.3808594300
 H          1.0944846996       -4.6701311002       -2.0786332896
 H          0.3707346094       -4.9131065301       -0.4363825796
 H          0.1401361195       -2.3283459502       -2.1377683299
