  62
        -98.94043945
 C          0.0769712407        2.0774593796       -0.1247769200
 C          1.1026781404        1.9149991293        0.8345568202
 C          2.3217580804        1.2113828990        0.3927663505
 C          2.4117319306        0.8101367491       -0.8877582295
 C          3.5263668905        0.0435743088       -1.5499475393
 C          3.9704826501       -1.2258899313       -0.8045163893
 C          5.3853524999       -1.1208318717       -0.2355588789
 H          5.7804690697       -2.1285705318       -0.0898951689
 H          6.0215533202       -0.6222565618       -0.9697200387
 C          5.4843939298       -0.3895747018        1.1018603712
 H          5.0447992895       -1.0126339717        1.8843932610
 H          6.5451746198       -0.2732961421        1.3367690414
 C          4.8184950901        0.9882312584        1.1574875011
 H          4.9839358805        1.5364740984        0.2314876912
 H          5.3055888301        1.5553807882        1.9539185412
 C          3.3199711000        0.9441823387        1.4861048507
 H          3.0620755697       -0.0189848113        1.9423916506
 H          3.0945198900        1.6962549287        2.2498380307
 H          3.9444001500       -2.0603310013       -1.5070124093
 H          3.2604883798       -1.4547384112       -0.0084313294
 H          4.3801585408        0.7071096786       -1.6980320390
 H          3.1523542007       -0.2172673410       -2.5417860494
 O          1.4307835609        1.0644481394       -1.8002358597
 C          0.2221231609        1.6404708697       -1.4396573600
 O         -0.6083294388        1.7042761099       -2.3640935002
 O          0.9992559303        2.3289079493        2.0219630302
 C         -1.2585867793        2.6462673799        0.3208950497
 C         -2.2819677195        1.5359850802        0.2757333094
 C         -3.4766628993        1.6127167305       -0.4268809909
 C         -4.3486661796        0.5371404407       -0.4409056912
 C         -4.0468630500       -0.6307584494        0.2342351888
 C         -2.8574664602       -0.7148082597        0.9510917291
 C         -1.9936874700        0.3676568701        0.9734659394
 H         -1.0765106201        0.2962027098        1.5405191896
 N         -2.5322279707       -1.8809183298        1.6686187591
 S         -1.0217011308       -2.5788940402        1.5061881495
 O         -1.1595113713       -3.8763555302        2.1314992793
 O         -0.0035520708       -1.7157385905        2.0466708998
 C         -0.8019247905       -2.7772152402       -0.2498168805
 C         -1.3159169806       -3.8993009100       -0.8702344607
 C         -1.1991372603       -4.0141801099       -2.2457819307
 C         -0.5863974099       -3.0050721200       -2.9741836005
 C         -0.0765597997       -1.8848541902       -2.3363796303
 C         -0.1834587200       -1.7699425603       -0.9599908503
 H          0.2035113600       -0.9152954604       -0.4273358102
 H          0.3889167706       -1.0885703203       -2.8958087601
 H         -0.5032719696       -3.0894366900       -4.0462197005
 H         -1.5895659904       -4.8851635798       -2.7470371108
 H         -1.7790224209       -4.6617054699       -0.2649385809
 H         -3.2451188609       -2.5958835797        1.6311689489
 H         -4.7250476603       -1.4702444592        0.2151711886
 H         -5.2728554794        0.6075967810       -0.9938251114
 H         -3.7229882290        2.5111196006       -0.9678893609
 H         -1.1163106894        2.9313958898        1.3738798898
 C         -1.6400831388        3.8765170701       -0.4717098303
 C         -2.5730652787        4.8880541803        0.1219301095
 C         -1.1181752285        5.2108539599       -0.0331994601
 H         -0.8232123982        5.9223690399       -0.7897110000
 H         -0.5010451587        5.2366244697        0.8532920901
 H         -3.2786656784        5.3832401905       -0.5276821206
 H         -2.9461589489        4.6996226603        1.1173365794
 H         -1.6952460285        3.6896728601       -1.5375526903
