  62
        -98.94019976
 C          1.8917381999        1.3835823372        0.2444842840
 C          1.7049843565        0.0104855023       -0.0274332168
 C          2.8626645053       -0.8759184337        0.2062878857
 C          4.0120090152       -0.3353980996        0.6522009622
 C          5.3212164695       -1.0336822212        0.9015279768
 C          6.0820744699       -1.3408626711       -0.4011854741
 C          5.2146207499       -1.8252809745       -1.5612784050
 H          4.4247698828       -1.0950755322       -1.7484460846
 H          5.8429019412       -1.8559729555       -2.4555506171
 C          4.5952236321       -3.2091168856       -1.3803121093
 H          5.3948634630       -3.9491003320       -1.2981213319
 H          4.0270115011       -3.4335998467       -2.2867587733
 C          3.6658387740       -3.3730192318       -0.1777354073
 H          4.2370194220       -3.4168685378        0.7455595508
 H          3.1678372022       -4.3415921296       -0.2821513908
 C          2.5581330524       -2.3284239845       -0.0709414923
 H          1.9708360504       -2.3349949457       -0.9961283137
 H          1.8643497505       -2.6423238547        0.7189929306
 H          6.5781735753       -0.4222506300       -0.7234864686
 H          6.8531927513       -2.0822338644       -0.1861317474
 H          5.9294295724       -0.3589872880        1.5077170092
 H          5.1534072681       -1.9375691768        1.4798136915
 O          4.1466028843        0.9992358627        0.8978479048
 C          3.1047148586        1.8861219228        0.7127369039
 O          3.3720228907        3.0708125015        0.9993615607
 O          0.6202807067       -0.4660545663       -0.4527220129
 C          0.7498915271        2.3598880561        0.0270108001
 C         -0.4574143968        1.9217903063        0.8193973724
 C         -0.3128006957        1.6995219023        2.1873948576
 C         -1.3864184287        1.2962823234        2.9564081559
 C         -2.6273513537        1.0961375342        2.3758381976
 C         -2.7842606701        1.3201295249        1.0143195603
 C         -1.7061069448        1.7426174123        0.2464803434
 H         -1.8598819568        1.9031126721       -0.8069412632
 N         -4.0389149791        1.1501550793        0.3986654872
 S         -4.1972205223        0.1101387374       -0.9048374715
 O         -3.3526739510        0.5434745114       -1.9864984281
 O         -5.6185522740        0.0826084348       -1.1759537331
 C         -3.6861156068       -1.4820593502       -0.2825736457
 C         -4.6646840695       -2.3735714365        0.1151071422
 C         -4.2866856558       -3.5926640027        0.6526395503
 C         -2.9403208697       -3.8957697020        0.7913918345
 C         -1.9728182246       -2.9876551704        0.3917738644
 C         -2.3417419142       -1.7656735526       -0.1504861766
 H         -1.5951005860       -1.0526289652       -0.4623904546
 H         -0.9229412723       -3.2117075288        0.4952198728
 H         -2.6431262373       -4.8438751966        1.2115724710
 H         -5.0393252322       -4.2999348097        0.9621756420
 H         -5.6983777505       -2.0968354578       -0.0164984024
 H         -4.7893128082        0.9733130577        1.0522579003
 H         -3.4671346229        0.7743603053        2.9730762025
 H         -1.2568295092        1.1289302569        4.0150245358
 H          0.6599948969        1.8472112057        2.6374791792
 H          1.0934515933        3.3237077112        0.4307192881
 C          0.4776209286        2.5248512784       -1.4534961621
 C         -0.1142314677        3.8000942279       -1.9710124876
 C          1.3223249335        3.4740421214       -2.2465755095
 H          1.6063881688        3.1969460612       -3.2508166919
 H          2.0845771025        4.0232148241       -1.7126796037
 H         -0.8209212113        3.7446512504       -2.7855498428
 H         -0.3286881436        4.5785398492       -1.2543151320
 H          0.1845033856        1.5981422231       -1.9346917704
