  62
        -98.94482751
 C         -1.5998389900       -1.2780254768       -0.2829694614
 C         -1.4234888876        0.1117895628       -0.4868624225
 C         -2.3220370627        0.9911132132        0.2726957113
 C         -3.2073554714        0.4686026913        1.1382895476
 C         -4.1671974836        1.2390533575        2.0038831058
 C         -5.4638315660        1.6467707608        1.2902773782
 C         -5.3178180464        2.7672291218        0.2596432484
 H         -6.3261442171        3.0980973154        0.0029299647
 H         -4.8037504937        3.6134824385        0.7164832119
 C         -4.5909853858        2.3541565663       -1.0277908694
 H         -4.5730662029        1.2644393245       -1.1014745768
 H         -5.1444123358        2.7252624348       -1.8932499600
 C         -3.1604211167        2.8803455866       -1.1441574993
 H         -3.1742829321        3.9708618640       -1.2031819334
 H         -2.7284216048        2.4963359138       -2.0714382921
 C         -2.2434941917        2.4655755278        0.0137548221
 H         -2.4976328277        3.0218318637        0.9159556411
 H         -1.2112941376        2.7024814222       -0.2558536330
 H         -6.1664336700        1.9782381191        2.0584220436
 H         -5.8892809095        0.7625030856        0.8101093960
 H         -4.4246595982        0.5842455029        2.8394208752
 H         -3.6710209759        2.1257029046        2.4003663197
 O         -3.3212683513       -0.8712195206        1.3407556966
 C         -2.5367580753       -1.7654582756        0.6334759140
 O         -2.7678994187       -2.9631818038        0.8999988974
 O         -0.5728861275        0.6218084192       -1.2626982175
 C         -0.7695235423       -2.3488602812       -0.9758451718
 C          0.4918862714       -2.6107797956       -0.1865667836
 C          0.7727224958       -3.8813186101        0.3003854850
 C          1.9079649848       -4.1068425728        1.0583153778
 C          2.7659908142       -3.0664531407        1.3616846898
 C          2.4946625400       -1.7896214211        0.8784846164
 C          1.3778737066       -1.5769175058        0.0848783077
 H          1.1714621990       -0.5880449875       -0.2868402212
 N          3.3551899844       -0.7258672417        1.1783267121
 S          2.8120710164        0.8350503626        1.4811885330
 O          3.6666274631        1.3068104195        2.5539293503
 O          1.3933019818        0.8699940427        1.7378869314
 C          3.2528365535        1.7160455424       -0.0029907258
 C          2.3167368063        1.9789108741       -0.9812910884
 C          2.7194936174        2.6493300254       -2.1272536271
 C          4.0398558738        3.0421580646       -2.2760019993
 C          4.9686022454        2.7719400173       -1.2817686763
 C          4.5735522314        2.1036507061       -0.1354034270
 H          5.2576659464        1.8867168332        0.6681491347
 H          5.9954151789        3.0796265982       -1.3971329264
 H          4.3454071911        3.5622394438       -3.1703128861
 H          1.9924155260        2.8553317479       -2.8966936820
 H          1.2938924150        1.6590455627       -0.8525527634
 H          4.1107671079       -0.9666462268        1.8029994505
 H          3.6386357334       -3.2354370795        1.9746228599
 H          2.1168946929       -5.0977455421        1.4323782238
 H          0.0836394777       -4.6887277626        0.1004142214
 H         -1.3771652759       -3.2639695173       -0.9408635064
 C         -0.4501795508       -2.0444036269       -2.4257469969
 C         -0.1490465432       -3.1809275201       -3.3540889917
 C         -1.4353921984       -2.4234669733       -3.4882832951
 H         -1.5629488078       -1.7614400313       -4.3313650065
 H         -2.3483581532       -2.9081936861       -3.1730149100
 H          0.6106950831       -3.0415356171       -4.1074796104
 H         -0.1913977800       -4.1818261943       -2.9517487276
 H          0.0977273943       -1.1221910323       -2.5624547764
