  62
        -98.93703891
 C         -1.3995120796       -1.4899548123        0.1807293227
 C         -2.4550241683       -1.0164819721        0.9966186471
 C         -3.2930382198        0.0646276381        0.4448674494
 C         -2.9779759937        0.5735113286       -0.7602777811
 C         -3.7046768289        1.6675466501       -1.4946059595
 C         -3.3922273557        3.0817068947       -0.9593838451
 C         -3.0540498666        3.1527505327        0.5300183916
 H         -2.3065732429        2.3927387531        0.7670623950
 H         -2.5990775911        4.1266768983        0.7301310564
 C         -4.2535087760        3.0005366063        1.4648760221
 H         -4.8725710240        3.8982888962        1.3901186769
 H         -3.8793417615        2.9401837620        2.4900600233
 C         -5.1500183593        1.7942465893        1.1961751388
 H         -5.6337921831        1.9006566112        0.2287617950
 H         -5.9457257789        1.8033702452        1.9472697666
 C         -4.4695985519        0.4315580989        1.3144649253
 H         -4.1188442015        0.2980073558        2.3439023404
 H         -5.2297152169       -0.3449051936        1.1590948365
 H         -2.5354340651        3.4691127105       -1.5140034151
 H         -4.2412862195        3.7336984926       -1.1687413865
 H         -3.3913306736        1.6105836760       -2.5386089284
 H         -4.7720952208        1.4619030396       -1.4596152521
 O         -1.8948753355        0.1557897416       -1.4687496480
 C         -1.0840552154       -0.8837347682       -1.0369655691
 O         -0.1490983249       -1.1509875205       -1.8100627997
 O         -2.6927362690       -1.4789732878        2.1460626144
 C         -0.5658354153       -2.6458366379        0.7048137649
 C          0.9013463610       -2.3360145284        0.5539392379
 C          1.7685541690       -3.0704063969       -0.2429585235
 C          3.0979570567       -2.7018183064       -0.3572365002
 C          3.5914054910       -1.6020932687        0.3196827742
 C          2.7319759110       -0.8619647853        1.1212815367
 C          1.4021433632       -1.2326351733        1.2350040955
 H          0.7315797504       -0.6482146750        1.8538555611
 N          3.2242866244        0.2717195865        1.8045054419
 S          3.8536566440        1.4851246600        0.8322210377
 O          5.1362655792        1.0666949202        0.3270598386
 O          3.8523280052        2.6730238086        1.6569397088
 C          2.6837262294        1.6491816502       -0.5008420750
 C          1.5122448070        2.3356206415       -0.2528045017
 C          0.5607588727        2.4190328932       -1.2547991862
 C          0.7895058231        1.8072558118       -2.4769242534
 C          1.9680974734        1.1168835396       -2.7076880099
 C          2.9262628149        1.0329549120       -1.7110644092
 H          3.8544488993        0.5035581585       -1.8510426971
 H          2.1347952564        0.6310423132       -3.6551095990
 H          0.0384073999        1.8569507259       -3.2491022721
 H         -0.3609794565        2.9482270302       -1.0732889949
 H          1.3697346693        2.8022898368        0.7095387593
 H          2.5478568042        0.6723342369        2.4394117625
 H          4.6206286231       -1.2938845940        0.2311858567
 H          3.7588041832       -3.2776005017       -0.9872154846
 H          1.3981276276       -3.9166747603       -0.7972452664
 H         -0.7953669810       -2.6809603913        1.7831685797
 C         -0.9567743482       -4.0025119083        0.1379416953
 C         -2.3657913450       -4.2819174945       -0.2896600441
 C         -1.2731892068       -4.2104575221       -1.3116912559
 H         -0.9503458845       -5.1295775955       -1.7786093481
 H         -1.2292677516       -3.3516130487       -1.9624389177
 H         -2.7921087294       -5.2457038670       -0.0548289491
 H         -3.0745530982       -3.4679790640       -0.2402154880
 H         -0.4409183282       -4.8129938185        0.6439743863
