  62
        -98.94078698
 C          1.6754600955        0.1851055751        0.6572118157
 C          2.9227319775        0.2347148951        1.3306150104
 C          4.0841807485        0.6282241087        0.5224499821
 C          3.9124767156        0.8972114177       -0.7843693473
 C          5.0138857156        1.2582320119       -1.7376633941
 C          5.5912519163        0.0089410989       -2.4174760232
 C          5.9458526359       -1.1154403939       -1.4443219693
 H          5.0283031438       -1.4946602623       -0.9884137089
 H          6.3730365911       -1.9313197482       -2.0314691678
 C          6.9310850546       -0.7114128481       -0.3385631865
 H          7.4486072869        0.2062964791       -0.6203345235
 H          7.6876077199       -1.4929618500       -0.2411420765
 C          6.2970013569       -0.5315734756        1.0420981566
 H          5.6997059338       -1.4130551366        1.2890053145
 H          7.1013759358       -0.4656835575        1.7796498183
 C          5.4151674814        0.7115531837        1.2153578659
 H          5.1927354765        0.8138468146        2.2816458532
 H          5.9631961329        1.5991023244        0.8922904075
 H          6.4808671258        0.3008676663       -2.9785480832
 H          4.8521453005       -0.3725482368       -3.1256958103
 H          4.6039263105        1.9201598876       -2.5022589658
 H          5.7973316777        1.7852237659       -1.1965001839
 O          2.7076062703        0.8192781718       -1.4011781224
 C          1.5600372072        0.4482771941       -0.7090126350
 O          0.5408372957        0.3983740953       -1.4201314091
 H         -2.1163249032       -0.1593072626        0.4710628510
 C         -1.6202934885       -1.0983232198        0.2939417128
 C         -0.3183842595       -1.2912041793        0.7249998400
 C          0.3006099976       -2.5095587085        0.4553274128
 C         -0.3658216348       -3.5037235574       -0.2328899689
 C         -1.6705661471       -3.3107958504       -0.6526343273
 C         -2.2975030426       -2.0999362446       -0.3881354774
 N         -3.6075876178       -1.8634730035       -0.8232819398
 S         -4.6556016798       -0.9277284438        0.0744380151
 O         -4.4546183308       -1.1106484881        1.4937330448
 O         -5.9698063141       -1.2770537223       -0.4235237335
 C         -4.3013672867        0.7564481875       -0.3813855922
 C         -4.4894718446        1.7472001432        0.5621044035
 C         -4.2661544281        3.0672910557        0.2036810238
 C         -3.8593622244        3.3718377549       -1.0862171514
 C         -3.6750126760        2.3650376536       -2.0211797705
 C         -3.9020882999        1.0437470414       -1.6709875465
 H         -3.7594030490        0.2394143390       -2.3730623514
 H         -3.3512564391        2.6039640656       -3.0213790002
 H         -3.6811206203        4.3991163178       -1.3625764611
 H         -4.4069701315        3.8516090000        0.9306302798
 H         -4.7926925522        1.4646711789        1.5578682810
 H         -4.0680681528       -2.6411034461       -1.2715787236
 H         -2.1955333982       -4.0873287077       -1.1880333088
 H          0.1295055539       -4.4406065454       -0.4399529855
 H          1.3192064172       -2.6617596974        0.7865257120
 C          0.4590027773       -0.2325513007        1.4640623417
 H          0.8803317999       -0.6977598207        2.3715772702
 C         -0.4070145467        0.9252407052        1.9366281370
 C          0.1979741873        2.2606035174        2.2478438350
 C         -0.7148544300        2.1080804987        1.0700420346
 H         -1.7044106708        2.5374246655        1.1270215309
 H         -0.2907259346        2.1265945524        0.0788355278
 H          1.2553721712        2.3841380383        2.0640841021
 H         -0.1607769869        2.7969646042        3.1133303900
 H         -1.2003349138        0.5889272980        2.5986693971
 O          3.0587381961       -0.0423650196        2.5525500323
