  62
        -98.93913228
 C         -2.4224854220       -1.2052439268       -0.0659939634
 C         -3.5288855399       -0.9389783828        0.7762638086
 C         -4.4922976298        0.0693493003        0.3028197523
 C         -4.2667951273        0.6835523592       -0.8715675291
 C         -5.0843951380        1.7737679968       -1.5075466367
 C         -4.5367756884        3.1594413348       -1.1251451774
 C         -5.0950555786        3.7366781808        0.1751141843
 H         -4.5351764136        4.6495537770        0.3910621624
 H         -6.1384640489        4.0203788711        0.0223439158
 C         -5.0125499986        2.8100545338        1.3908586453
 H         -4.0385335738        2.3173900206        1.4112891258
 H         -5.0800499385        3.4285661809        2.2879290021
 C         -6.1322344105        1.7593070713        1.4259474003
 H         -6.6214792126        1.7849976589        2.4018108918
 H         -6.8929384177        2.0244822238        0.6920635789
 C         -5.6769148133        0.3107148723        1.1985776757
 H         -6.5225624063       -0.2738544129        0.8212056924
 H         -5.3930947473       -0.1353256986        2.1568974754
 H         -3.4481030226        3.0829725851       -1.0576136999
 H         -4.7641030235        3.8603289636       -1.9310666918
 H         -6.1321116788        1.6770306025       -1.2389884781
 H         -4.9842787043        1.6468175461       -2.5875342427
 O         -3.1806841893        0.4088320459       -1.6452494887
 C         -2.2352760145       -0.5314449529       -1.2723896549
 O         -1.3076053903       -0.6718457485       -2.0933106329
 O         -3.7040680613       -1.5194638259        1.8809986983
 C         -1.4038450958       -2.2364561554        0.3917337932
 C         -0.1080927771       -1.5237827228        0.6883010363
 C          0.0286348637       -0.8406227740        1.8940781913
 C          1.1773111859       -0.1252413740        2.1733367959
 C          2.2108003188       -0.0671110311        1.2537054837
 C          2.0756064543       -0.7281154550        0.0411151585
 C          0.9291998838       -1.4652769273       -0.2282510442
 H          0.8346194503       -1.9648336706       -1.1792314339
 N          3.1127296150       -0.6708603908       -0.9046277050
 S          3.8464050425        0.8063651317       -1.2110561764
 O          2.9526842739        1.9164937835       -0.9740751563
 O          4.3876401744        0.6885259147       -2.5477416912
 C          5.1966106116        0.8474351195       -0.0485318570
 C          6.0529540753       -0.2355840213       -0.0066906814
 C          7.1153653391       -0.2150186375        0.8825552487
 C          7.3050889251        0.8829771888        1.7084897703
 C          6.4389858362        1.9639876585        1.6521904557
 C          5.3734604901        1.9491099280        0.7653023100
 H          4.6712863750        2.7644348942        0.6910275248
 H          6.5876823170        2.8171287387        2.2945060288
 H          8.1325957232        0.8963665801        2.4001055472
 H          7.7906325120       -1.0541349116        0.9293120321
 H          5.8722207147       -1.0676985838       -0.6662826775
 H          2.8926095479       -1.1452471723       -1.7687255728
 H          3.1044568978        0.4990292469        1.4593464764
 H          1.2708398074        0.3955042614        3.1142372257
 H         -0.7862760383       -0.8695357381        2.6040872620
 H         -1.7991171138       -2.6341332632        1.3361011747
 C         -1.2694033735       -3.3748417220       -0.5974013871
 C         -0.5952343332       -4.6430223418       -0.1692393573
 C         -2.0766241706       -4.6202218207       -0.3929933727
 H         -2.4762588896       -5.1218258584       -1.2616509874
 H         -2.7258559266       -4.6580712310        0.4693153445
 H          0.0245494307       -5.1645435295       -0.8824784807
 H         -0.2368016042       -4.6951954112        0.8475404370
 H         -1.1276382030       -3.0423013029       -1.6188122419
