  62
        -98.93918582
 C          1.9792924032        1.3303986926        0.0085202952
 C          2.5896114403        0.6397408135        1.0798394456
 C          3.7984900051       -0.1395148927        0.7623340352
 C          4.2373344354       -0.1871186243       -0.5097092386
 C          5.4516962820       -0.8569255269       -1.1183005857
 C          6.2211209993       -1.9292263317       -0.3510308249
 C          5.4469789289       -3.2247255707       -0.1114728091
 H          5.3023435903       -3.7270247468       -1.0713512824
 H          6.0586188419       -3.8767985627        0.5159147118
 C          4.0731842261       -3.0614388152        0.5342671897
 H          3.6396168047       -4.0583036936        0.6540293043
 H          3.4157767747       -2.5057303062       -0.1382081407
 C          4.0716738101       -2.3855009895        1.9043732180
 H          4.7618786345       -2.9060557070        2.5709668016
 H          3.0655759108       -2.4885360861        2.3202834599
 C          4.4223150536       -0.8867567623        1.9058969910
 H          4.0134851125       -0.4464714784        2.8200292644
 H          5.4984901982       -0.7322472306        1.9226343490
 H          7.0968760997       -2.1763680933       -0.9572446764
 H          6.5918125956       -1.5292994892        0.5881110337
 H          5.1125851747       -1.2735660541       -2.0721026550
 H          6.1450220157       -0.0455882075       -1.3663697901
 O          3.5964503134        0.4745743239       -1.5170870829
 C          2.4591806259        1.2352397486       -1.2964575405
 O          1.9865995393        1.7589177105       -2.3218843887
 O          2.1444468735        0.6721677397        2.2597157907
 C          0.7349679823        2.1573976292        0.2785590148
 C         -0.4414896383        1.5550920375       -0.4498784836
 C         -1.2710492394        2.2708701049       -1.3017872721
 C         -2.3215061945        1.6415177396       -1.9489162513
 C         -2.5746118018        0.2970735654       -1.7529878928
 C         -1.7635313995       -0.4237390510       -0.8841706899
 C         -0.7126080497        0.2078678846       -0.2382883469
 H         -0.0786202581       -0.3556780590        0.4351093597
 N         -2.0243744426       -1.7853839938       -0.6595866630
 S         -3.6141922071       -2.2598451929       -0.4451594924
 O         -3.5460726541       -3.4483529156        0.3760909578
 O         -4.2506957390       -2.4200835957       -1.7289612478
 C         -4.3903098081       -0.9245305096        0.4488389941
 C         -5.4733207388       -0.2673042449       -0.0981878541
 C         -6.0435664601        0.7837911281        0.6021653446
 C         -5.5205887368        1.1598629683        1.8293709907
 C         -4.4342157525        0.4869553439        2.3677585800
 C         -3.8618943997       -0.5661353671        1.6733065784
 H         -3.0189299980       -1.1109126800        2.0679378678
 H         -4.0280927812        0.7800943965        3.3226327064
 H         -5.9611269433        1.9816018689        2.3714727077
 H         -6.8896558057        1.3071772585        0.1870354953
 H         -5.8451038940       -0.5900841416       -1.0570129088
 H         -1.4129265745       -2.2176080653        0.0166205183
 H         -3.3762070690       -0.2094760311       -2.2655323375
 H         -2.9500877174        2.2066450723       -2.6198141713
 H         -1.0889423822        3.3189134139       -1.4710276017
 H          0.5510005723        2.0590324793        1.3586498054
 C          0.9763648084        3.6161333217       -0.0432656305
 C          0.1810521077        4.6791914851        0.6521001874
 C          1.6286288663        4.4866164249        0.9873581970
 H          2.3400521608        5.2292712683        0.6586406978
 H          1.8806238333        4.0320656475        1.9344680619
 H         -0.1017407505        5.5592801456        0.0947960598
 H         -0.5530510585        4.3598729192        1.3759924747
 H          1.2541027551        3.7753490950       -1.0788500205
