  62
        -98.93894030
 C         -2.3487731702       -0.7677176304        0.5966239899
 C         -3.4266914202       -0.9857829999       -0.2965577102
 C         -4.6791483502       -0.2816844602        0.0210381302
 C         -4.7424274403        0.5092167891        1.1064277107
 C         -5.9338517303        1.3292379988        1.5064806512
 C         -5.8705282104        2.7364043492        0.8958288620
 C         -5.5721076104        2.7465715301       -0.6034665179
 H         -5.5803132305        3.7889888603       -0.9292316973
 H         -4.5607653604        2.3671863803       -0.7677566182
 C         -6.5615921904        1.9371265206       -1.4533009484
 H         -7.4765267604        1.7589040502       -0.8871881485
 H         -6.8330698304        2.5270996011       -2.3311966381
 C         -6.0146156703        0.6031980909       -1.9645924692
 H         -5.0497540803        0.7653505113       -2.4514961692
 H         -6.7038860903        0.2209821414       -2.7221841595
 C         -5.8419203102       -0.4948059197       -0.9076107799
 H         -5.6380678702       -1.4322631694       -1.4328800705
 H         -6.7687085602       -0.6117113701       -0.3426750400
 H         -5.0844055604        3.2990856189        1.4047257024
 H         -6.8223979104        3.2367507590        1.0830278824
 H         -6.8414984203        0.8224994490        1.1844993109
 H         -5.9420323003        1.4145684382        2.5943907812
 O         -3.6920426903        0.6889882387        1.9476459708
 C         -2.4809624403        0.0636298389        1.7140945604
 O         -1.6069583503        0.3169527484        2.5688728606
 O         -3.3742218302       -1.7247891593       -1.3153624307
 C         -0.9828468102       -1.4145780502        0.4355145295
 C         -0.1185577902       -0.6968195696       -0.5741006300
 C         -0.5012023402       -0.5673298788       -1.9053099600
 C          0.3341338097        0.0547965118       -2.8147913096
 C          1.5717990997        0.5352077817       -2.4244713493
 C          1.9607646297        0.4146927309       -1.0957643094
 C          1.1099501098       -0.1878724397       -0.1797477197
 H          1.4218652098       -0.2625670203        0.8522675602
 N          3.2035291697        0.9016490307       -0.6602787991
 S          4.0257466297        0.0166407300        0.5207426504
 O          3.8876789798       -1.3985580198        0.2615159695
 O          3.6034934297        0.4712557092        1.8221090107
 C          5.7032203297        0.5382618203        0.2138321907
 C          6.1540495196        1.7129730100        0.7856217214
 C          7.4477451296        2.1332274902        0.5200674417
 C          8.2636344697        1.3774376908       -0.3088419388
 C          7.7977657297        0.1996843111       -0.8739120495
 C          6.5048675998       -0.2261780492       -0.6131299398
 H          6.1029882398       -1.1394666789       -1.0217555803
 H          8.4355087198       -0.3874145685       -1.5148958299
 H          9.2700982396        1.7068233709       -0.5131871286
 H          7.8144811096        3.0463299000        0.9604633222
 H          5.4869420596        2.2613749395        1.4303215617
 H          3.8103889097        1.1729128112       -1.4218227289
 H          2.2296386497        1.0046741821       -3.1402452290
 H          0.0249491797        0.1517465324       -3.8446859195
 H         -1.4566995802       -0.9601908386       -2.2166186902
 H         -0.4912243402       -1.3137742708        1.4134593996
 C         -1.0498978001       -2.8911535500        0.0886959686
 C          0.1773280700       -3.7285350601        0.2808653881
 C         -1.0036883800       -3.9082591407        1.1862961280
 H         -1.5996445300       -4.8029170907        1.0852099775
 H         -0.9276777900       -3.5457531213        2.2015785482
 H          0.3911548700       -4.5003773896       -0.4426468524
 H          1.0596818699       -3.2438206903        0.6746079084
 H         -1.6775470501       -3.1032873195       -0.7665548615
