  62
        -98.93560964
 C         -2.6453053146       -1.0618795718        0.7223530934
 C         -2.6231968823        0.2310441358        1.3062967773
 C         -3.7841501988        1.0860756388        1.0428733844
 C         -4.7974026054        0.6165188562        0.2927269602
 C         -6.0686323262        1.3496601740       -0.0398928915
 C         -5.9490583101        2.2956684979       -1.2423747813
 C         -5.1439865274        3.5706361443       -0.9883008193
 H         -5.5249789250        4.0683203201       -0.0960202718
 H         -5.3225401896        4.2368779174       -1.8346069503
 C         -3.6316248349        3.3463372605       -0.8486303429
 H         -3.0953907025        4.0870803162       -1.4463788740
 H         -3.3683332798        2.3646384085       -1.2500616409
 C         -3.1031456095        3.4521104676        0.5820919959
 H         -3.2367323792        4.4729576788        0.9471811956
 H         -2.0310603472        3.2375771756        0.5658981707
 C         -3.7663536446        2.4874190472        1.5740215827
 H         -4.7783604858        2.8208739600        1.8030549447
 H         -3.1793288843        2.4863031692        2.4956763289
 H         -6.9621570006        2.5829727667       -1.5329824951
 H         -5.5068430091        1.7464490738       -2.0767914510
 H         -6.4066760613        1.9095036593        0.8325724358
 H         -6.8141267577        0.5870190325       -0.2750605397
 O         -4.7859333961       -0.6290984564       -0.2467870898
 C         -3.7049325230       -1.4896216614       -0.0787652549
 O         -3.8350637333       -2.5715910849       -0.6783858324
 O         -1.6760600491        0.6432454752        2.0296659438
 C         -1.4362450967       -1.9403850742        0.9898899462
 C         -0.3775154767       -1.6915388779       -0.0542149405
 C         -0.6659781531       -1.7987309155       -1.4113356358
 C          0.3117775531       -1.5438107145       -2.3553458824
 C          1.5896359094       -1.1750796437       -1.9710294945
 C          1.8839193796       -1.0507714020       -0.6201365382
 C          0.9003463262       -1.3121088879        0.3269405250
 H          1.1266888786       -1.1995766628        1.3787311503
 N          3.1828103518       -0.6904491370       -0.2106209291
 S          3.9228757506        0.6116982394       -0.9961217893
 O          3.0592165614        1.7716112983       -0.9625383936
 O          4.3460444377        0.1775890433       -2.3033389352
 C          5.3439216259        0.8543861466        0.0501498058
 C          5.2857151710        1.7895898104        1.0658548651
 C          6.3859544066        1.9481522453        1.8938881391
 C          7.5170546416        1.1707185406        1.6950966992
 C          7.5600679977        0.2362913873        0.6709399299
 C          6.4642004522        0.0734476221       -0.1613541106
 H          6.4540524143       -0.6334988235       -0.9742765461
 H          8.4423591472       -0.3641765978        0.5188130925
 H          8.3713687039        1.2964429439        2.3413528136
 H          6.3562840373        2.6758104669        2.6889326818
 H          4.3889231249        2.3780770085        1.1789472355
 H          3.2281662143       -0.5502329973        0.7905490300
 H          2.3534181220       -0.9644838219       -2.7015719460
 H          0.0771046907       -1.6309113437       -3.4059497803
 H         -1.6637486453       -2.0796280099       -1.7148232215
 H         -1.0387255435       -1.5769791616        1.9512052938
 C         -1.7742446853       -3.4128117088        1.1703960287
 C         -1.3693021654       -4.4848587230        0.2082970663
 C         -0.6912244234       -4.3835773913        1.5394248434
 H         -0.8985653373       -5.1324557710        2.2885261041
 H          0.3223404217       -4.0112675583        1.5522524595
 H         -2.0686591870       -5.2887433919        0.0370851517
 H         -0.8113164378       -4.2019663579       -0.6701443829
 H         -2.7344365171       -3.5481229092        1.6573303719
