  62
        -98.93765238
 C          1.8146471703        1.1468207999       -0.0626918714
 C          2.3251731503        0.0281950399       -0.7619149115
 C          3.7926251803       -0.1007617198       -0.7958989119
 C          4.5535784403        0.8285026004       -0.1929939723
 C          6.0583436603        0.9082311607       -0.1346303729
 C          6.8215692007       -0.3895008091        0.1701513971
 C          6.0794941311       -1.3878556092        1.0708460174
 H          6.7420936915       -1.6914233089        1.8835356073
 H          5.2078262812       -0.9110347193        1.5221777277
 C          5.6413538511       -2.6523373193        0.3274285078
 H          6.4574154210       -2.9759290293       -0.3224752325
 H          5.4704230915       -3.4473806793        1.0572044379
 C          4.3647942108       -2.5197469597       -0.5027135418
 H          4.2378754108       -3.4420217698       -1.0749847317
 H          3.4975388610       -2.4330592398        0.1578733385
 C          4.3280095703       -1.3286290998       -1.4738946020
 H          3.6187379000       -1.5678501601       -2.2710837317
 H          5.3043930801       -1.1513984097       -1.9185668323
 H          7.0841037704       -0.8848611592       -0.7636890430
 H          7.7598727508       -0.0993491889        0.6457741467
 H          6.4151677399        1.3182834406       -1.0836745230
 H          6.2734867504        1.6499894308        0.6380300970
 O          4.0168667903        1.8991214904        0.4582445077
 C          2.6478935503        2.0805513401        0.5505927582
 O          2.3034583904        3.0901903202        1.1975948081
 O          1.5971041502       -0.8222104703       -1.3368382711
 C          0.3141260303        1.3573484496        0.0406029390
 C         -0.3259275393        0.1422643396        0.6650290694
 C          0.1741584612       -0.3173463101        1.8818881193
 C         -0.3559493384       -1.4392715602        2.4866584596
 C         -1.4069113884       -2.1209853104        1.8978084101
 C         -1.9192092589       -1.6663356907        0.6892023402
 C         -1.3857645193       -0.5347382107        0.0838072399
 H         -1.7894294997       -0.2173437609       -0.8627687100
 N         -2.9785663190       -2.3426934010        0.0728557307
 S         -4.1041803895       -1.5430664513       -0.8555260091
 O         -5.2579229793       -2.4179717615       -0.8478299086
 O         -3.5693384300       -1.2290937914       -2.1565398993
 C         -4.4876421895       -0.0351504613        0.0203689009
 C         -4.6731304990       -0.0739545211        1.3882281309
 C         -4.9880082690        1.0989100089        2.0550323509
 C         -5.1193758794        2.2840748688        1.3475960108
 C         -4.9398404899        2.3053358187       -0.0264093093
 C         -4.6205380399        1.1355198586       -0.6972072693
 H         -4.4654287303        1.1075303185       -1.7636026993
 H         -5.0435515803        3.2265422886       -0.5771727194
 H         -5.3631739094        3.1958125988        1.8698045207
 H         -5.1290096086        1.0852712390        3.1237849209
 H         -4.5708756386       -1.0073536410        1.9168039510
 H         -3.3759352287       -3.1069121310        0.5973557409
 H         -1.8180844381       -3.0040339704        2.3626625703
 H          0.0492201420       -1.7873794300        3.4248825995
 H          0.9974141013        0.2151525701        2.3392735690
 H          0.1735698104        2.2079142197        0.7235257690
 C         -0.2535968102        1.7237247194       -1.3138140208
 C         -1.4871654104        2.5678611291       -1.4105696705
 C         -0.1534162707        3.1455417893       -1.7753502310
 H          0.0612346990        3.3363355392       -2.8161700711
 H          0.3029954694        3.8533093195       -1.0985251713
 H         -2.1876623007        2.3590582889       -2.2047554102
 H         -1.9468724802        2.8893935192       -0.4883091904
 H         -0.1064204203        0.9459826493       -2.0549482308
