  62
        -98.94438118
 C          2.3362862311        1.1206469678        0.2405536093
 C          2.3844260020       -0.1293902145       -0.4231136452
 C          3.3660346777       -1.0904612299        0.0980916281
 C          4.1178508378       -0.7736282542        1.1672394929
 C          5.1415494932       -1.6569873963        1.8270858383
 C          6.5207348153       -1.6253959182        1.1541109128
 C          6.6047795077       -2.3450414630       -0.1925592577
 H          7.6638430451       -2.4336756863       -0.4425984950
 H          6.2092889443       -3.3559087478       -0.0883962450
 C          5.8856510573       -1.6248391093       -1.3416741559
 H          5.7001189361       -0.5855882478       -1.0610037369
 H          6.5317850976       -1.6083480960       -2.2222167587
 C          4.5633890931       -2.2660825085       -1.7631626184
 H          4.1233818216       -1.6558120261       -2.5560008250
 H          4.7516507748       -3.2619120845       -2.1706517902
 C          3.5326956113       -2.3885884550       -0.6330427048
 H          2.5665430620       -2.6489847069       -1.0731997002
 H          3.8237779711       -3.1797893375        0.0577079294
 H          6.8247859356       -0.5835474829        1.0301524615
 H          7.2276150110       -2.0988588366        1.8392833466
 H          5.2497459480       -1.2940196085        2.8514258030
 H          4.7736669740       -2.6829781229        1.8595506365
 O          4.0128412846        0.4232812000        1.8028011520
 C          3.1370003808        1.3956323401        1.3529673911
 O          3.1610571543        2.4505959254        2.0176437238
 O          1.6595250627       -0.4426564123       -1.4046120974
 C          1.3789282890        2.2229375548       -0.1885746284
 C         -0.0219959094        1.8095347013        0.1923990115
 C         -0.4990824777        2.1031101337        1.4666584748
 C         -1.7545898658        1.6822163812        1.8633503806
 C         -2.5567642742        0.9520455222        1.0031847375
 C         -2.0814877656        0.6374108757       -0.2622273444
 C         -0.8290361859        1.0806227095       -0.6669773726
 H         -0.4646330248        0.8148546291       -1.6465157103
 N         -2.8803244420       -0.1142004863       -1.1409065379
 S         -3.6387218621       -1.4892671569       -0.5496521918
 O         -2.9041753954       -2.0841469735        0.5432228374
 O         -3.8603334669       -2.3274889941       -1.7080377506
 C         -5.2111306309       -0.8819482587        0.0278535214
 C         -5.6455426910       -1.1945499507        1.3010002086
 C         -6.8781308400       -0.7215141303        1.7241290904
 C         -7.6509102145        0.0507492092        0.8706798463
 C         -7.2014658494        0.3537845865       -0.4060227946
 C         -5.9710588964       -0.1169920399       -0.8354288010
 H         -5.5868319265        0.0943678374       -1.8192254806
 H         -7.8048850660        0.9551465833       -1.0667431751
 H         -8.6088559991        0.4187222964        1.2026895884
 H         -7.2287216032       -0.9564311886        2.7163105042
 H         -5.0075228614       -1.7925413193        1.9323925381
 H         -2.4264954324       -0.3107443452       -2.0218402654
 H         -3.5318117723        0.6109720070        1.3105483962
 H         -2.1129459368        1.9213285700        2.8531118520
 H          0.1363444085        2.6523569289        2.1474971689
 H          1.6465474722        3.1007955884        0.4140449393
 C          1.5323033339        2.5767186954       -1.6533522025
 C          0.9361028541        3.8540656925       -2.1608956306
 C          2.4233989528        3.7170816739       -2.0398005100
 H          3.0098503085        3.6287405187       -2.9421555897
 H          2.9237666104        4.2520213724       -1.2456808313
 H          0.4992227673        3.8635907196       -3.1476692365
 H          0.4256879183        4.4822475009       -1.4466895258
 H          1.5231445690        1.7166234454       -2.3104293053
