  62
        -98.94395242
 C         -1.6944851218       -1.4522729579        0.5116575966
 C         -2.5773303681       -0.9877626689       -0.4943394027
 C         -3.4402502182        0.1431892382       -0.1140556831
 C         -3.2978933633        0.7123545916        1.0959568411
 C         -4.0866518894        1.8890367691        1.5924418890
 C         -3.3975162584        3.2186562793        1.2563929994
 C         -2.9548977481        3.3321722240       -0.2019251872
 H         -2.5054412846        4.3196891761       -0.3266501754
 H         -2.1787375172        2.5893334757       -0.3969467622
 C         -4.0839372245        3.1519668820       -1.2256105721
 H         -3.9954032703        3.9293686573       -1.9872908382
 H         -5.0518126543        3.2840500220       -0.7405344624
 C         -4.0611988453        1.8075083822       -1.9547039979
 H         -3.0634855936        1.6263548824       -2.3618688884
 H         -4.7536382087        1.8665511941       -2.7986210610
 C         -4.4680765226        0.5891790661       -1.1164616866
 H         -5.4228192564        0.7848825198       -0.6235621972
 H         -4.6021150746       -0.2528965694       -1.8016029434
 H         -4.0848165012        4.0321512685        1.4956540052
 H         -2.5163488511        3.3246022279        1.8937489316
 H         -5.0800441244        1.8625223712        1.1482592930
 H         -4.1830049749        1.8033831505        2.6763026205
 O         -2.3754069278        0.2956916672        2.0017410466
 C         -1.5657749497       -0.7942293581        1.7382334382
 O         -0.7771277703       -1.0795424534        2.6629372090
 O         -2.6684755950       -1.4809281564       -1.6476071916
 C         -0.7707526598       -2.6471073255        0.3149499072
 C          0.4823539901       -2.1539160552       -0.3658116431
 C          0.5491144804       -1.9239387088       -1.7353782143
 C          1.6977803500       -1.3974092462       -2.2996710120
 C          2.7935146561       -1.0795206797       -1.5156215640
 C          2.7286099632       -1.2935248211       -0.1451712212
 C          1.5827845997       -1.8353848759        0.4179100623
 H          1.5273025815       -1.9817965757        1.4884246667
 N          3.8193359625       -0.9326263554        0.6685358228
 S          4.4275492508        0.6108933815        0.4456491773
 O          5.3769791661        0.5996137013       -0.6393509994
 O          4.9530614000        1.0091660941        1.7327355506
 C          3.0248991733        1.6214110896       -0.0026428698
 C          1.9150005823        1.6193108723        0.8191795765
 C          0.8192101633        2.3892935260        0.4660009668
 C          0.8527163783        3.1504782848       -0.6922502320
 C          1.9760336097        3.1455210637       -1.5040603005
 C          3.0721725139        2.3711419002       -1.1602450608
 H          3.9621687867        2.3294881376       -1.7668562617
 H          1.9978445981        3.7384441737       -2.4040803319
 H         -0.0029999204        3.7487971578       -0.9622036909
 H         -0.0568514781        2.3814271148        1.0962357108
 H          1.9045160477        1.0218346401        1.7174730902
 H          3.6643238310       -1.1145968494        1.6499578803
 H          3.6922383248       -0.6615050520       -1.9399959399
 H          1.7391816643       -1.2245982987       -3.3642013647
 H         -0.3138470145       -2.1324176628       -2.3475939649
 H         -0.4903741345       -2.9737385102        1.3256824280
 C         -1.4175315679       -3.8153281796       -0.3972478695
 C         -0.7666602980       -5.1615957788       -0.3050939626
 C         -2.0555405056       -4.9011686353        0.4137439729
 H         -2.9584471749       -5.3597819852        0.0395302017
 H         -2.0295158913       -4.8068195438        1.4899438102
 H         -0.7817809635       -5.8017823709       -1.1735902176
 H          0.1348531014       -5.2421355816        0.2838742965
 H         -1.8989246240       -3.5504209412       -1.3281366029
