  62
        -98.94387788
 C          1.9202699064        1.4057914058        0.4603311968
 C          2.5991479673        0.7669714901       -0.6070053791
 C          3.3636286949       -0.4352284938       -0.2448441398
 C          3.3521569447       -0.8866618075        1.0216394791
 C          4.0929025326       -2.0878122008        1.5435876879
 C          3.3659216182       -3.4197543629        1.3132859930
 C          3.3616449145       -3.9197028944       -0.1319344804
 H          4.3825597037       -3.9248669543       -0.5150023275
 H          3.0180347108       -4.9558641089       -0.1096195329
 C          2.4567122278       -3.1202529648       -1.0797330607
 H          1.7440755999       -2.5318191778       -0.4979772872
 H          1.8785348373       -3.8117904088       -1.6958481002
 C          3.1988432725       -2.1857648138       -2.0344287756
 H          3.8143844053       -2.7727920706       -2.7196985711
 H          2.4571608538       -1.6431796011       -2.6257284723
 C          4.0951322737       -1.1540539663       -1.3384697967
 H          4.9884667098       -1.6369985831       -0.9426810477
 H          4.3986173366       -0.4099715416       -2.0789480510
 H          2.3382131064       -3.3212702789        1.6702819340
 H          3.8607437114       -4.1712451949        1.9330015708
 H          5.0849162155       -2.1307361655        1.0930173972
 H          4.2070987073       -1.9389970686        2.6196157935
 O          2.6504282485       -0.2688471778        2.0097042416
 C          1.9160451195        0.8747128742        1.7527088792
 O          1.3078114566        1.3236875315        2.7470736144
 H         -1.0608083300        1.9000552965        1.6062646817
 C         -1.2489904469        1.8711038850        0.5408276792
 C         -0.2382992171        2.2555328636       -0.3314921265
 C         -0.4737745179        2.1819829823       -1.6988551252
 C         -1.6998302406        1.7476916560       -2.1726342910
 C         -2.7099063639        1.3791798574       -1.3017395177
 C         -2.4776887915        1.4357770441        0.0668449326
 N         -3.4902092655        1.0593072948        0.9662756148
 S         -4.3715464646       -0.3226170401        0.6419118765
 O         -5.3783951042       -0.0309798390       -0.3477681977
 O         -4.8605533688       -0.7692862999        1.9269168642
 C         -3.2030886142       -1.4981926616       -0.0181888742
 C         -2.1554973770       -1.8972397950        0.7881776097
 C         -1.2383497869       -2.8086443058        0.2919599212
 C         -1.3803075314       -3.2999757248       -0.9967286629
 C         -2.4358047697       -2.8877677917       -1.7944537271
 C         -3.3581508271       -1.9780784935       -1.3025342245
 H         -4.1962260127       -1.6346336606       -1.8867639524
 H         -2.5423635586       -3.2716684592       -2.7961109061
 H         -0.6628858620       -4.0092423043       -1.3775322284
 H         -0.4166791664       -3.1312649384        0.9119682756
 H         -2.0721655047       -1.5013777574        1.7883022201
 H         -3.2074701259        1.0940153197        1.9346261890
 H         -3.6734397130        1.0539830883       -1.6588582281
 H         -1.8728101356        1.6965010445       -3.2367336139
 H          0.3125515486        2.4442062232       -2.3874188904
 C          1.0907136870        2.6657570209        0.2558497386
 H          0.8988452551        3.0612807367        1.2626235901
 C          1.8072050029        3.7302068628       -0.5465839219
 C          1.2731010890        5.1298142363       -0.5275291281
 C          2.5564952220        4.8074804269        0.1758069014
 H          3.4826100970        5.1641520484       -0.2494356647
 H          2.5547281828        4.7834304456        1.2561667457
 H          1.3156481409        5.7111099220       -1.4356639822
 H          0.3985976249        5.3217558251        0.0762175595
 H          2.2385346767        3.3651707164       -1.4686828188
 O          2.5895525689        1.1665032720       -1.7989824985
