  62
        -98.94654844
 C         -1.0993366501       -1.8014066393       -0.2262396113
 C         -1.2272720500       -0.6076953987       -0.9807010503
 C         -2.5463293899        0.0448562315       -0.9325205297
 C         -3.5353370099       -0.5021519890       -0.2050340201
 C         -4.9102670098        0.0774413010       -0.0425065796
 C         -4.9912884996        0.9949747300        1.1846509512
 C         -3.8728273895        2.0349919498        1.2560990920
 H         -4.0593109794        2.6543508991        2.1365324825
 H         -2.9160087496        1.5327343796        1.4203107615
 C         -3.7575332695        2.9321079408        0.0162042727
 H         -4.6829734895        2.8926492914       -0.5606285873
 H         -3.6217934593        3.9646301206        0.3453261935
 C         -2.5722312796        2.5965747514       -0.8911630476
 H         -2.4361765295        3.4264132520       -1.5913774470
 H         -1.6669725795        2.5246943608       -0.2818509577
 C         -2.7121151498        1.3133482621       -1.7209873987
 H         -3.6700712398        1.3187631927       -2.2462085686
 H         -1.9104481698        1.3083106826       -2.4654758387
 H         -4.9412213897        0.3770702693        2.0842336407
 H         -5.9585980096        1.5010924302        1.1734381017
 H         -5.1727208598        0.6323080918       -0.9412300191
 H         -5.6156500499       -0.7458047390        0.0846467298
 O         -3.3795135400       -1.6496790996        0.5036232989
 C         -2.1646673801       -2.3127918698        0.5195989483
 O         -2.1594964102       -3.3475373203        1.2187591875
 H          0.6871324902       -0.0154108001        0.5087160800
 C          1.2913952801       -0.7035818506        1.0749786495
 C          1.1432071200       -2.0688275605        0.8902383983
 C          1.9257424099       -2.9330417912        1.6488085276
 C          2.8348086600       -2.4364932920        2.5652209380
 C          2.9880162902       -1.0725205622        2.7392218191
 C          2.2047940303       -0.2005032915        1.9907122098
 N          2.3248207104        1.1821824184        2.1495825109
 S          1.6937727105        2.2828356593        1.0751520719
 O          2.3308604907        3.5305126589        1.4494532729
 O          0.2536331005        2.2815458594        1.1490362220
 C          2.2481323604        1.8245536506       -0.5574461285
 C          3.4220681403        1.1175494006       -0.7223941592
 C          3.8392013702        0.8043772716       -2.0058250795
 C          3.0873605901        1.2107604026       -3.0969031991
 C          1.9191510202        1.9321837026       -2.9144581184
 C          1.4926080303        2.2410587316       -1.6334598981
 H          0.5781639604        2.7819909615       -1.4513174777
 H          1.3303894502        2.2444720733       -3.7619598981
 H          3.4111224201        0.9599905333       -4.0950341293
 H          4.7463705901        0.2392428416       -2.1490929800
 H          3.9914842603        0.8050324698        0.1378081805
 H          3.1156752705        1.5208701478        2.6738951612
 H          3.6974783003       -0.6830574629        3.4528217493
 H          3.4335209600       -3.1175163226        3.1505049474
 H          1.8089781598       -3.9990520311        1.5255952967
 C          0.1853726298       -2.6076853295       -0.1468860420
 H         -0.1141941803       -3.6172989597        0.1675767771
 C          0.9082269398       -2.7130523285       -1.4785907122
 C          1.7519165896       -3.9148730584       -1.7724894132
 C          0.4493748296       -3.7201002876       -2.4879636330
 H          0.4628594796       -3.4444449468       -3.5314404927
 H         -0.3821565905       -4.3544824577       -2.2158499334
 H          2.6676100196       -3.7747656880       -2.3255449131
 H          1.8030226696       -4.6922882190       -1.0256838838
 H          1.2460710099       -1.7542791782       -1.8506608114
 O         -0.3076340999       -0.0962969982       -1.6713254100
