  62
        -98.94705057
 C         -0.7652467900       -1.2898131700        0.0650175701
 C         -1.4266918198       -0.4595298800        0.9998826602
 C         -2.3891924999        0.4936216600        0.4356990804
 C         -2.5257322001        0.5913893201       -0.8990174196
 C         -3.4589885902        1.5183630401       -1.6289829994
 C         -4.8832225902        0.9660418002       -1.7807104992
 C         -5.7141273500        0.9613895202       -0.4968860891
 H         -6.7476189101        0.7580038102       -0.7844070790
 H         -5.6914178199        1.9541748502       -0.0465869491
 C         -5.2762346499       -0.0848804598        0.5376382908
 H         -4.6486172100       -0.8366899499        0.0535045207
 H         -6.1559633699       -0.6049384498        0.9237178809
 C         -4.5251831897        0.4852601701        1.7412903807
 H         -4.2393027896       -0.3471566299        2.3895720506
 H         -5.1888719396        1.1405366901        2.3098403908
 C         -3.2531922197        1.2673910701        1.3846847605
 H         -2.6809315996        1.4243617500        2.3018718904
 H         -3.5158012097        2.2359764901        0.9614633506
 H         -4.8254614603       -0.0485028598       -2.1815720593
 H         -5.3979335903        1.5856667502       -2.5185993791
 H         -3.4987852000        2.4807076701       -1.1203270894
 H         -3.0373907903        1.6635199202       -2.6253761495
 O         -1.8007199802       -0.1626017899       -1.7672866897
 C         -0.9405033002       -1.1501486200       -1.3118454699
 O         -0.3981365104       -1.8146025600       -2.2147254900
 H          1.5392131301       -0.1030230101        0.3579230798
 C          2.0911037700       -0.9191536801       -0.0859219704
 C          1.5416509199       -2.1947575301       -0.0658474303
 C          2.2668272598       -3.2390159101       -0.6240510504
 C          3.4993023397       -2.9993736101       -1.2066605006
 C          4.0362008798       -1.7258732902       -1.2356082907
 C          3.3230926099       -0.6752480501       -0.6684413705
 N          3.8156842799        0.6365143898       -0.7066189806
 S          3.4943708202        1.6974750598        0.5392889395
 O          4.4452694302        2.7727297998        0.3476034294
 O          3.5439110703        1.0412432498        1.8255269895
 C          1.8585530102        2.3243440999        0.2238412698
 C          1.4680664500        2.5756695899       -1.0762470502
 C          0.2174463299        3.1270696400       -1.3025640500
 C         -0.6099633399        3.4275727100       -0.2319599498
 C         -0.2049582297        3.1666853399        1.0670494201
 C          1.0406373803        2.6074484999        1.2995688299
 H          1.3884961805        2.3739998098        2.2935194898
 H         -0.8524536095        3.3928238299        1.8986783802
 H         -1.5755148199        3.8724294600       -0.4108365097
 H         -0.1068506402        3.3224529800       -2.3120478299
 H          2.1367874598        2.3317406599       -1.8851406003
 H          4.7458717399        0.7454077898       -1.0823163107
 H          4.9939663597       -1.5406071002       -1.6974571008
 H          4.0500506096       -3.8174378901       -1.6457218607
 H          1.8646335798       -4.2386566401       -0.6133775404
 C          0.1834823800       -2.3626815901        0.5670663899
 H          0.2854843802       -2.1847068101        1.6485434799
 C         -0.4216657901       -3.7349867200        0.3537216000
 C         -0.0877947800       -4.8631941001        1.2820963499
 C         -1.4458510099       -4.2317464600        1.3279391301
 H         -2.2895826100       -4.7902457300        0.9511321402
 H         -1.6853198898       -3.5898651600        2.1632691702
 H          0.5939438902       -4.6571399101        2.0934804298
 H         -0.0010651701       -5.8591601401        0.8746235998
 H         -0.5777214302       -3.9610669300       -0.6954476900
 O         -1.2292179096       -0.5175313100        2.2438242202
