  62
        -98.93697196
 C         -1.9778318401       -0.6287690404        0.1456423797
 C         -2.6357332002        0.6009327495        0.3975989499
 C         -4.0155119003        0.7531859295       -0.1019548099
 C         -4.5746753803       -0.2728110105       -0.7697411100
 C         -5.9623851703       -0.3739439406       -1.3458734698
 C         -7.0361612502       -0.6088042208       -0.2726282097
 C         -6.9088429101        0.2762438191        0.9640173303
 H         -7.6675381900       -0.0456850510        1.6822285804
 H         -5.9341994401        0.1088262292        1.4257881002
 C         -7.1035863503        1.7704591692        0.7169551605
 H         -7.1030860902        2.2624401591        1.6930769605
 H         -8.0837989803        1.9346635691        0.2638971606
 C         -6.0433074604        2.4496900093       -0.1537566496
 H         -6.1529126405        3.5294672093       -0.0167683695
 H         -6.2136906705        2.2549385294       -1.2093071596
 C         -4.6032989704        2.1071639794        0.2149103702
 H         -3.9364407205        2.8342147695       -0.2646359798
 H         -4.4611770303        2.2578124693        1.2914575002
 H         -6.9673323801       -1.6495079908        0.0533049202
 H         -8.0166762403       -0.4622599708       -0.7289200696
 H         -5.9564093503       -1.2297762605       -2.0245219599
 H         -6.1899024005        0.5115854895       -1.9317772497
 O         -3.9068302102       -1.4393999204       -0.9869962301
 C         -2.6117997501       -1.6561866504       -0.5526097203
 O         -2.1686383801       -2.7812471903       -0.8551925204
 O         -2.0941381602        1.5481721195        1.0313323999
 C         -0.5592336101       -0.7641160903        0.6711457296
 C          0.4612658398       -0.4976840201       -0.4099100505
 C          0.5486284597       -1.2997236800       -1.5440501806
 C          1.4927106696       -1.0335700999       -2.5182073707
 C          2.3805235895        0.0186795102       -2.3723848407
 C          2.3048069196        0.8225168201       -1.2422323606
 C          1.3424918497        0.5652672199       -0.2744003005
 H          1.2900649798        1.2070210298        0.5922323195
 N          3.1977576095        1.8965265201       -1.0558736906
 S          4.1600976697        1.8914174701        0.3146477393
 O          3.3386668698        1.9842055499        1.4932302194
 O          5.1158128096        2.9556968502        0.1067417093
 C          4.9907298498        0.3130228102        0.2597611891
 C          6.2550589597        0.2434640403       -0.2922895711
 C          6.8731770198       -0.9917796096       -0.4004184413
 C          6.2140344200       -2.1326790497        0.0318019487
 C          4.9434444100       -2.0466048499        0.5799487789
 C          4.3223273199       -0.8132560699        0.6978756490
 H          3.3361639100       -0.7123653900        1.1208530691
 H          4.4289032101       -2.9331211499        0.9140912888
 H          6.6926440100       -3.0951064797       -0.0574366414
 H          7.8624035698       -1.0614389995       -0.8233122614
 H          6.7299277796        1.1567353804       -0.6127665211
 H          3.7690920194        2.0937251602       -1.8659410507
 H          3.1217666794        0.2210267403       -3.1308166208
 H          1.5445906496       -1.6584193998       -3.3968019507
 H         -0.1404565402       -2.1220182301       -1.6590823106
 H         -0.4569800701        0.0311000696        1.4226701496
 C         -0.2841764499       -2.0946875204        1.3443870194
 C          0.8091010402       -2.1754279904        2.3657426093
 C         -0.6249604097       -2.2666230305        2.7925169594
 H         -1.0090579396       -3.2205334206        3.1210690794
 H         -1.0575196397       -1.4212297206        3.3081469396
 H          1.4136737703       -3.0682895503        2.4059333592
 H          1.3449447102       -1.2667850603        2.6002186693
 H         -0.4349102799       -2.9465666503        0.6945766794
