  62
        -98.94413179
 C          2.5420119285        1.1475668521       -0.0811481841
 C          3.2208163778        0.3699335175        0.8866888988
 C          3.9877623909       -0.7688271205        0.3698627011
 C          4.0205281480       -1.0049982767       -0.9547068882
 C          4.7753559098       -2.1134370057       -1.6373115163
 C          4.0220022160       -3.4502239961       -1.6745279089
 C          3.9295668575       -4.1818647998       -0.3348653162
 H          3.5697337514       -5.1911374866       -0.5441930206
 H          4.9263381887       -4.2746748257        0.0972580442
 C          2.9860194842       -3.5234605580        0.6816055548
 H          2.3481221934       -4.2856546430        1.1353768316
 H          2.3266070131       -2.8222078495        0.1640625584
 C          3.6943879905       -2.7891148583        1.8203867440
 H          2.9340157844       -2.3350591805        2.4618912244
 H          4.2568272580       -3.5049949739        2.4237837503
 C          4.6496726159       -1.6800533072        1.3591892682
 H          4.9260627880       -1.0817605037        2.2308622973
 H          5.5528941067       -2.1152853001        0.9325290622
 H          4.5432752897       -4.0985532449       -2.3823951903
 H          3.0165244880       -3.2736151011       -2.0635752683
 H          4.9448923755       -1.7857911313       -2.6651149273
 H          5.7418253118       -2.2520334126       -1.1522231702
 O          3.3611605191       -0.2279014906       -1.8538144712
 C          2.5826233497        0.8453145687       -1.4426502768
 O          1.9967727534        1.4367267421       -2.3678561603
 H          0.3289713219        0.1008771786        0.8737337073
 C         -0.3012303316        0.8385924351        0.3908945119
 C          0.2444547211        2.0705983135        0.0492418304
 C         -0.5795891650        3.0130805663       -0.5505185731
 C         -1.9050649365        2.7152118074       -0.8182879779
 C         -2.4372779328        1.4813938868       -0.4940190337
 C         -1.6264832606        0.5357348188        0.1209741218
 N         -2.1539196788       -0.7259157934        0.4484639144
 S         -3.5914827989       -0.7851613030        1.3154362716
 O         -3.7513847296        0.3794348873        2.1550756437
 O         -3.5716322253       -2.0653771203        1.9889318069
 C         -4.8507907308       -0.8108928730        0.0575678488
 C         -5.8602932254        0.1314452371        0.0736753421
 C         -6.8358984157        0.0846154773       -0.9101438304
 C         -6.7849999180       -0.8985514684       -1.8863415247
 C         -5.7654718246       -1.8390734128       -1.8868488627
 C         -4.7880662266       -1.7988638719       -0.9054854670
 H         -3.9817660898       -2.5123632033       -0.8681767528
 H         -5.7288363258       -2.6018940382       -2.6478685747
 H         -7.5441532746       -0.9324553962       -2.6517251994
 H         -7.6292483652        0.8146164845       -0.9115617428
 H         -5.8554728927        0.8806654087        0.8492224306
 H         -1.4753235156       -1.3561163231        0.8508193254
 H         -3.4666509329        1.2448160710       -0.7079516443
 H         -2.5319212987        3.4552842879       -1.2917215874
 H         -0.1836932154        3.9799893000       -0.8134713042
 C          1.6962581851        2.3201303862        0.3802447369
 H          1.7930671615        2.3351218743        1.4767634757
 C          2.2346841053        3.6224243534       -0.1722495023
 C          2.0294704588        4.9024414209        0.5797812468
 C          3.3902176693        4.2781053137        0.5206168760
 H          4.1515020783        4.7510339932       -0.0813148097
 H          3.7733402230        3.7976554864        1.4092763556
 H          1.4895491337        4.8526524959        1.5133987617
 H          1.8585323979        5.8087581003        0.0187947736
 H          2.2181099200        3.6535874259       -1.2556486925
 O          3.1815262441        0.6116476327        2.1242874694
