  62
        -98.93856406
 C         -1.8007015865       -1.0679322771       -0.0586787209
 C         -2.3335898308        0.0665140365       -0.7121007275
 C         -3.8026319002        0.1995880724       -0.7019152101
 C         -4.5492456321       -0.7384612643       -0.0897051774
 C         -6.0507281117       -0.8867374727        0.0442638406
 C         -6.9825834779        0.2810839978       -0.2687117960
 C         -6.8769532304        1.4614781156        0.6965067586
 H         -7.5071465082        2.2692680690        0.3180824138
 H         -7.2770637452        1.1539510221        1.6659406042
 C         -5.4675246013        1.9995903629        0.9308571707
 H         -4.8535230119        1.2288145869        1.4010389196
 H         -5.5400265609        2.8292042427        1.6393824371
 C         -4.7476418640        2.5148284158       -0.3138814759
 H         -3.8274863974        3.0046171706        0.0166803785
 H         -5.3650160255        3.2646042449       -0.8125820470
 C         -4.3528399890        1.4410165571       -1.3424191088
 H         -5.1824861226        1.2001535990       -2.0027798682
 H         -3.5478254139        1.8477702232       -1.9617249443
 H         -8.0020341845       -0.1086415692       -0.2016287050
 H         -6.8402688959        0.6125142612       -1.2930548044
 H         -6.2258316019       -1.2180546459        1.0727355658
 H         -6.3241456401       -1.7291497704       -0.6007325153
 O         -3.9853742842       -1.8235619490        0.5189695525
 C         -2.6158822947       -2.0127610776        0.5604421529
 O         -2.2548182924       -3.0382028373        1.1722854795
 O         -1.6214305334        0.9319308440       -1.2854517980
 C         -0.2987041761       -1.2870864048       -0.0202892277
 C          0.3800181466       -0.0850498877        0.5884201403
 C         -0.0923777478        0.3994842569        1.8065451002
 C          0.4762110481        1.5113538200        2.3946081339
 C          1.5396243195        2.1573698307        1.7881091377
 C          2.0262358500        1.6761883979        0.5794835079
 C          1.4541755428        0.5546282160       -0.0089539001
 H          1.8410011397        0.2156287523       -0.9551221710
 N          3.0977065872        2.3160085969       -0.0573138622
 S          4.2292668330        1.4442059729       -0.9139618671
 O          5.3999605114        2.2958019204       -0.9298539957
 O          3.7150410419        1.0659230281       -2.2058691100
 C          4.5554181483       -0.0141318413        0.0626718438
 C          4.8170349429        0.1296595990        1.4111285278
 C          5.0776350459       -1.0012761439        2.1673684494
 C          5.0780002134       -2.2508047005        1.5662088354
 C          4.8228361954       -2.3779471854        0.2100105941
 C          4.5577720994       -1.2497837414       -0.5500015338
 H          4.3478910376       -1.3040062351       -1.6057568228
 H          4.8262139463       -3.3492873752       -0.2584640097
 H          5.2793820207       -3.1300995727        2.1575751914
 H          5.2784935247       -0.9056741747        3.2222462985
 H          4.8182382600        1.1125952593        1.8527986503
 H          3.5075900822        3.0849826712        0.4508212390
 H          1.9798000608        3.0335062238        2.2393657812
 H          0.0907913116        1.8798826636        3.3333327870
 H         -0.9256424940       -0.1040869684        2.2781548948
 H         -0.1340804353       -2.1479245030        0.6442820362
 C          0.2035537283       -1.6387925543       -1.4046192770
 C          1.4066769883       -2.5146319130       -1.5739489417
 C          0.0423388094       -3.0461662107       -1.8926890412
 H         -0.2229106505       -3.2066687508       -2.9269600616
 H         -0.4045311793       -3.7563430469       -1.2119995865
 H          2.0777688220       -2.3068624456       -2.3937600228
 H          1.8947649366       -2.8707966272       -0.6795034701
 H          0.0471008781       -0.8405596196       -2.1217751992
