  62
        -98.93745605
 C         -2.3281983715        0.3117790962       -0.4240563596
 C         -2.9699610906       -0.8579034534        0.0590044762
 C         -4.2420925667       -0.6621900325        0.7602059097
 C         -4.7164456666        0.5840193211        0.9382748899
 C         -5.9853282168        0.9558200751        1.6562731484
 C         -7.2457549769        0.8664915614        0.7850859107
 C         -7.7113949812       -0.5529778954        0.4585308649
 H         -7.7943554381       -1.1283107703        1.3810781041
 H         -8.7139934847       -0.4718190914        0.0339578738
 C         -6.8133556338       -1.3002962200       -0.5372746326
 H         -6.1732909844       -0.5848727850       -1.0589102515
 H         -7.4334619402       -1.7853380901       -1.2945819660
 C         -5.9347472998       -2.3830853737        0.0895660905
 H         -6.5653082718       -3.1752702743        0.4993848395
 H         -5.3150004531       -2.8199912362       -0.6978319328
 C         -5.0030738828       -1.8768157638        1.1986475819
 H         -5.5747924812       -1.6624361484        2.1013484236
 H         -4.2763519678       -2.6618600026        1.4216746190
 H         -7.0685643608        1.4144157586       -0.1432375267
 H         -8.0496966774        1.3746462830        1.3225272199
 H         -6.1052543880        0.3249117035        2.5374413192
 H         -5.8653450166        1.9910646952        1.9825299660
 O         -4.0594611396        1.6830501796        0.4879213822
 C         -2.8622061053        1.5843860544       -0.2139065240
 O         -2.4041952649        2.6839837470       -0.5700366602
 H          0.9581018829       -1.6886836875       -0.8907415416
 C          1.1081718656       -0.8180154052       -0.2656806255
 C          0.1663938079        0.2005635334       -0.2745899144
 C          0.3711456639        1.3029781369        0.5496641323
 C          1.4996099275        1.3851480826        1.3455775280
 C          2.4456389808        0.3738829731        1.3357738314
 C          2.2413383569       -0.7364591764        0.5297105337
 N          3.2320334433       -1.7538899783        0.4985743888
 S          4.4684307467       -1.3918345402       -0.5928057070
 O          3.9340269060       -0.8132825056       -1.8064479716
 O          5.2248426944       -2.6139040244       -0.7515363555
 C          5.4317877115       -0.1848243022        0.2860422904
 C          6.2350703734       -0.6142799905        1.3244491674
 C          6.9677274022        0.3238390150        2.0337654761
 C          6.8821808483        1.6664841540        1.6955694242
 C          6.0711440422        2.0804050448        0.6497199524
 C          5.3362261612        1.1472554871       -0.0647014855
 H          4.6912017995        1.4231384213       -0.8834832577
 H          6.0055351211        3.1245220958        0.3891594201
 H          7.4517822280        2.3955087530        2.2501136188
 H          7.6007456879        0.0068334935        2.8468528440
 H          6.2735477803       -1.6674610113        1.5481075249
 H          2.8493696431       -2.6578516118        0.2531719950
 H          3.3260459174        0.4312145086        1.9547775121
 H          1.6460418652        2.2478496145        1.9772850806
 H         -0.3624127481        2.0953424610        0.5525692981
 C         -1.0307390543        0.1024771755       -1.1832484854
 H         -1.0851619825       -0.9403812132       -1.5363533107
 C         -0.8976852159        0.9794312694       -2.4207610634
 C          0.0248442825        2.1522870604       -2.5254034103
 C          0.3343436524        0.8927664710       -3.2739735844
 H          0.2206870399        0.8842724831       -4.3476449820
 H          1.1549514409        0.2870011247       -2.9151363543
 H          0.6378346892        2.4007725666       -1.6741990120
 H         -0.3261779491        3.0136647778       -3.0726412733
 H         -1.8435261324        1.0710580296       -2.9462745751
 O         -2.4973334934       -2.0169680181       -0.0961504696
