  62
        -98.94399883
 C          1.4895782447        1.1084818142        0.8785840999
 C          2.3038923873        0.5963474061       -0.1630653573
 C          2.8861719593       -0.7321196513        0.0718083632
 C          2.5573275311       -1.4270334864        1.1737896250
 C          3.0549800640       -2.7978766202        1.5429741910
 C          2.2905076727       -3.9379748692        0.8562326309
 C          2.6027308426       -4.1317776507       -0.6282594844
 H          3.6833437992       -4.1752497173       -0.7714491710
 H          2.1956314249       -5.1036105668       -0.9150746600
 C          2.0000585622       -3.0607035503       -1.5483195552
 H          1.5487651070       -3.5440705031       -2.4189076869
 H          1.1907037501       -2.5398006622       -1.0305302292
 C          3.0029765432       -2.0335212538       -2.0741195563
 H          3.7161033364       -2.5255675632       -2.7405947336
 H          2.4526168652       -1.2896254908       -2.6561714181
 C          3.7888107640       -1.2944056888       -0.9847424092
 H          4.3121176312       -0.4572485876       -1.4542889518
 H          4.5258967412       -1.9607656621       -0.5363727155
 H          2.5403786774       -4.8623842109        1.3827752374
 H          1.2182358181       -3.7631756108        0.9755712381
 H          2.9251263050       -2.8964720848        2.6230383682
 H          4.1177393234       -2.8787464956        1.3117494531
 O          1.7118739605       -0.9346508021        2.1168331296
 C          1.1468604704        0.3235845177        1.9820179373
 O          0.3601685689        0.6243768685        2.9038380737
 O          2.5532503652        1.2047343890       -1.2351898925
 C          0.7642811613        2.4417415385        0.7511188055
 C          0.0112028377        2.4126870309       -0.5556398900
 C          0.2273711499        3.2754671859       -1.6193338858
 C         -0.4516291563        3.0840838647       -2.8115669985
 C         -1.3327018112        2.0303494081       -2.9713619940
 C         -1.5637878640        1.1676376591       -1.9037092248
 C         -0.9189800861        1.3907024274       -0.7010951195
 H         -1.0882318303        0.7223665681        0.1289294966
 N         -2.4531898599        0.0922514300       -2.0185589241
 S         -2.3761059172       -1.2420177491       -1.0155597855
 O         -1.0251004950       -1.5914893590       -0.6456253284
 O         -3.1187067174       -2.2574761046       -1.7334802045
 C         -3.3245240711       -0.7391335757        0.4047423708
 C         -2.7538425995       -0.7088829443        1.6604589659
 C         -3.5253070393       -0.3032847857        2.7388151272
 C         -4.8490396440        0.0577312657        2.5441139915
 C         -5.4112470619        0.0150256897        1.2765454543
 C         -4.6439538568       -0.3858259499        0.1957794365
 H         -5.0422274030       -0.4384517849       -0.8037177027
 H         -6.4417486798        0.2953234626        1.1293952207
 H         -5.4438220660        0.3743777603        3.3863046829
 H         -3.0772757072       -0.2654087111        3.7190425003
 H         -1.7171063355       -0.9850849150        1.7844699841
 H         -2.7588073539       -0.1298601737       -2.9533952187
 H         -1.8307097701        1.8661292574       -3.9147488165
 H         -0.2714006053        3.7526100252       -3.6399258253
 H          0.9498969382        4.0699264043       -1.5290162901
 H          0.0213416646        2.4322193693        1.5658493430
 C          1.6129009155        3.6837023875        0.9609451941
 C          2.8088596523        3.6478308498        1.8645186763
 C          2.9878386031        3.8523646930        0.3915995266
 H          3.2754471055        4.8349198233        0.0459907930
 H          3.3895988599        3.0460198016       -0.1994466173
 H          2.9798371844        4.4819052483        2.5285026566
 H          3.0846296043        2.6901328502        2.2827952487
 H          0.9995792445        4.5784924973        1.0129426433
