  62
        -98.93005460
 C         -2.5256833369        1.1098182860        0.4218091309
 C         -2.4807566164       -0.1926240548       -0.1303751910
 C         -3.7603267114       -0.7412104897       -0.6251659637
 C         -4.8783439836        0.0030832955       -0.5548924793
 C         -6.2960837467       -0.2786936699       -1.0069865168
 C         -6.7414287407       -1.6993370682       -1.3446599284
 C         -6.7768608886       -2.6595769433       -0.1563949804
 H         -7.5822067693       -2.3521019284        0.5154697425
 H         -7.0191876565       -3.6563822543       -0.5313480064
 C         -5.4938817840       -2.7375341859        0.6674291315
 H         -5.3018269717       -1.7716162554        1.1392178972
 H         -5.6567118550       -3.4606038841        1.4713148544
 C         -4.2477151765       -3.1711460645       -0.1024224554
 H         -3.4540537159       -3.3461070704        0.6289256833
 H         -4.4424291492       -4.1149398392       -0.6152922782
 C         -3.7148753203       -2.1552322349       -1.1284316836
 H         -2.6602342517       -2.3806046578       -1.3122706779
 H         -4.2363492308       -2.2403321871       -2.0787747659
 H         -6.1294635037       -2.1063770912       -2.1441791600
 H         -7.7598182479       -1.6202564210       -1.7349438614
 H         -6.9428800888        0.1210569271       -0.2194260838
 H         -6.4581316228        0.3529215112       -1.8875742151
 O         -4.8621758019        1.2739618501       -0.0540802554
 C         -3.7068975827        1.8539399591        0.4357302535
 O         -3.8581753327        3.0219933378        0.8468813739
 H          1.0370090854        0.3310112411        1.1627960324
 C          0.9689541403        0.8830188657        0.2379858151
 C         -0.1486050417        1.6612379825       -0.0155093074
 C         -0.2263426401        2.3391057514       -1.2286076679
 C          0.7858459197        2.2334224775       -2.1632111546
 C          1.8956091406        1.4461105128       -1.9114826635
 C          1.9817995501        0.7633485538       -0.7060135969
 N          3.0900895775       -0.0690038226       -0.4502882659
 S          4.6295401308        0.5766603389       -0.6978125917
 O          4.7803154492        1.8105388988        0.0439445940
 O          4.8741089421        0.6633759495       -2.1152304388
 C          5.6418013115       -0.7053701193        0.0134661579
 C          5.8449336277       -1.8617178421       -0.7155078417
 C          6.6074292463       -2.8769984302       -0.1608201431
 C          7.1499170218       -2.7204878117        1.1062796626
 C          6.9379123279       -1.5538121232        1.8250489241
 C          6.1750016337       -0.5346684085        1.2765554662
 H          5.9900913777        0.3920997703        1.7957898530
 H          7.3630071614       -1.4343200755        2.8086115966
 H          7.7437246828       -3.5121217259        1.5352932344
 H          6.7761249122       -3.7851208962       -0.7167996921
 H          5.4098345210       -1.9361486069       -1.6983453958
 H          3.0339188769       -0.4853242375        0.4699260019
 H          2.6929130187        1.3564406589       -2.6311555508
 H          0.7110119532        2.7660081434       -3.0997721106
 H         -1.0977344452        2.9479172529       -1.4312429539
 C         -1.2867944439        1.8024411540        0.9646362817
 H         -1.5583599513        2.8701145049        1.0071737636
 C         -0.9130651212        1.3980338399        2.3830202129
 C         -1.9776429427        1.0836971753        3.3904507668
 C         -1.0677383950        0.0002816340        2.8991391047
 H         -0.3163808640       -0.3797013210        3.5763734629
 H         -1.4650139934       -0.7428812228        2.2266058046
 H         -1.8535385679        1.4457062298        4.3999490218
 H         -3.0023836612        1.0886549515        3.0480314561
 H         -0.0580519162        1.9607914278        2.7467463961
 O         -1.4341398401       -0.8840849429       -0.2160710175
