  62
        -98.93423250
 C         -2.0265568825       -1.2028183969       -0.0330285441
 C         -2.3412084868       -0.0148034796       -0.7353865905
 C         -3.7676388358        0.3714391311       -0.7613046441
 C         -4.6722601113       -0.3994819834       -0.1357299431
 C         -6.1525187722       -0.1663162649       -0.0111835500
 C         -6.4786144982        0.5745036796        1.2965085586
 C         -6.4108482536        2.0986056234        1.2074562312
 H         -6.5283937290        2.4891942328        2.2209055855
 H         -7.2549668667        2.4613670395        0.6171004070
 C         -5.1189931412        2.6627866828        0.6102271117
 H         -4.2593842255        2.1250629206        1.0148250673
 H         -5.0278039731        3.7023883017        0.9311024474
 C         -5.0916301296        2.6129062682       -0.9247138060
 H         -4.8349469702        3.6006217737       -1.3135467389
 H         -6.0927970113        2.3876807653       -1.2920081495
 C         -4.0839979988        1.6251509852       -1.5305324714
 H         -3.1172608586        2.1238677180       -1.6548310072
 H         -4.4203119727        1.3441024428       -2.5345280198
 H         -5.7862311533        0.2191775291        2.0640685789
 H         -7.4865136043        0.2990199189        1.6134876691
 H         -6.5329935913        0.3716431131       -0.8743411033
 H         -6.6202334020       -1.1526468028        0.0228705686
 O         -4.3239380422       -1.5257663873        0.5455644732
 C         -3.0098743706       -1.9432280336        0.6296960441
 O         -2.8433947696       -2.9726120972        1.3136291885
 H          1.2316641886       -0.3442640552       -1.4190603163
 C          1.2052425612       -0.0104673102       -0.3935757332
 C          0.3219783430       -0.5988965735        0.4976598575
 C          0.2832808862       -0.1274171645        1.8061709898
 C          1.1025738658        0.9105948988        2.2094895465
 C          1.9749337804        1.5034340195        1.3140778313
 C          2.0169209316        1.0434520423        0.0047979139
 N          2.8944316970        1.6500053600       -0.9139618941
 S          4.5135510871        1.7343348843       -0.5046256709
 O          4.7035690374        2.7359061632        0.5139053420
 O          5.2145463421        1.9491358966       -1.7502441721
 C          4.8871892415        0.1181008535        0.1497293856
 C          4.9033943671       -0.0832316830        1.5148723143
 C          5.1161432743       -1.3641064469        1.9995029698
 C          5.3055029261       -2.4152044087        1.1159354768
 C          5.2904147212       -2.1957955037       -0.2532633572
 C          5.0738031448       -0.9184858565       -0.7435058862
 H          5.0618709213       -0.7054255028       -1.8004541620
 H          5.4419732076       -3.0149488634       -0.9378878043
 H          5.4678386700       -3.4115038186        1.4960610919
 H          5.1300536628       -1.5379073697        3.0634014831
 H          4.7576436996        0.7607487003        2.1683933835
 H          2.7802326533        1.3146651928       -1.8592144128
 H          2.6150353846        2.3205928017        1.6053817620
 H          1.0581404075        1.2663035454        3.2278305155
 H         -0.4072245778       -0.5819166120        2.5038233107
 C         -0.6028848875       -1.7203993670        0.0969307792
 H         -0.6426423999       -2.4375090415        0.9324818524
 C         -0.1039794147       -2.4977303961       -1.1125526223
 C         -1.0312256940       -3.3939142146       -1.8765539264
 C         -0.4861430938       -2.1559809012       -2.5200841601
 H          0.2601122185       -2.2697988296       -3.2933561687
 H         -1.1492569740       -1.3198861783       -2.6757240449
 H         -2.0704133888       -3.4023561897       -1.5808349904
 H         -0.6642726190       -4.3534834882       -2.2079988691
 H          0.9055569059       -2.8676550133       -0.9597389905
 O         -1.4908520679        0.7031202215       -1.3221531219
