  62
        -98.93902605
 C          2.3301105689        0.8192280823        0.6187176233
 C          3.4317223747        0.9656121996       -0.2600491978
 C          4.6102320447        0.1377044375        0.0417904665
 C          4.5933354495       -0.6821123465        1.1072509779
 C          5.7007510440       -1.6196040412        1.4903880884
 C          5.5087168683       -2.9999988000        0.8466185820
 C          5.2181600453       -2.9476392894       -0.6533635209
 H          5.1318481756       -3.9785728420       -1.0035081018
 H          4.2468579595       -2.4729587351       -0.8115425721
 C          6.2822071354       -2.2134670146       -1.4812001056
 H          7.2071236842       -2.1345027818       -0.9088199295
 H          6.5016931688       -2.8052233576       -2.3723158883
 C          5.8636375001       -0.8227261438       -1.9616032529
 H          4.8890666899       -0.8826382883       -2.4525282998
 H          6.5876458971       -0.4893216926       -2.7097944733
 C          5.7916081498        0.2618850106       -0.8794249604
 H          6.7231998422        0.2775154519       -0.3105602352
 H          5.6789135964        1.2264809984       -1.3825075175
 H          6.4084889646       -3.5916685190        1.0247839371
 H          4.6707522129       -3.4979872001        1.3399962548
 H          6.6533275922       -1.1928104090        1.1826544454
 H          5.6959629925       -1.7308108135        2.5759953994
 O          3.5270510399       -0.7822451760        1.9419012825
 C          2.3782398143       -0.0455777756        1.7170700549
 O          1.4799404264       -0.2374551593        2.5626977514
 H         -1.3575275465        0.3672890380        0.7921151915
 C         -1.0651080861        0.4019161569       -0.2477091875
 C          0.1471153896        0.9720161045       -0.6091373598
 C          0.5088086085        0.9825039203       -1.9525608882
 C         -0.3332691934        0.4416055791       -2.9065373845
 C         -1.5540548116       -0.1007979898       -2.5462964002
 C         -1.9193772333       -0.1267357525       -1.2053162354
 N         -3.1389940880       -0.6970192411       -0.8076126723
 S         -3.9457084182       -0.0408606747        0.5213173971
 O         -3.9154910087        1.4030395809        0.4580910154
 O         -3.4247584052       -0.6388392948        1.7251426208
 C         -5.5979588846       -0.6397832824        0.2196001191
 C         -5.8846274911       -1.9603012351        0.5114070278
 C         -7.1573183606       -2.4425830483        0.2508517899
 C         -8.1170355021       -1.6014108731       -0.2931142510
 C         -7.8153802345       -0.2782097566       -0.5777076066
 C         -6.5435041749        0.2102524523       -0.3217174159
 H         -6.2647812799        1.2325866608       -0.5205113995
 H         -8.5644453560        0.3740560368       -0.9968144586
 H         -9.1070800181       -1.9793200347       -0.4936975696
 H         -7.3959487125       -3.4700392220        0.4735875473
 H         -5.1099827349       -2.5728260149        0.9428431246
 H         -3.7646396234       -0.8710317229       -1.5822834768
 H         -2.2163617835       -0.5089798677       -3.2946674460
 H         -0.0411386687        0.4543908180       -3.9458203517
 H          1.4581936934        1.4089861403       -2.2365158370
 C          1.0266361836        1.5851042170        0.4551368831
 H          0.4999347816        1.4780563303        1.4138716996
 C          1.2290706394        3.0650435987        0.1878551963
 C          0.0769715710        3.9967125769        0.4085763742
 C          1.2517582682        4.0218134547        1.3392534887
 H          1.9263794545        4.8637375925        1.2965634049
 H          1.1248640556        3.6131312529        2.3316815980
 H         -0.0554172909        4.8224747425       -0.2735806378
 H         -0.8496731522        3.5699435595        0.7654844938
 H          1.8915158884        3.2674022396       -0.6430049441
 O          3.4578842757        1.7416958990       -1.2514396457
