  62
        -98.93343948
 C         -1.8645510102       -0.6988291384        0.7500664696
 C         -2.1527635801       -0.2115071489       -0.5478911506
 C         -2.4919264396        1.2157040612       -0.6279139512
 C         -2.4415620192        1.9818481917        0.4755515285
 C         -2.7359291287        3.4560547718        0.5461789178
 C         -4.2289198386        3.7874391224        0.6810051078
 C         -5.0620104688        3.5663382921       -0.5822511720
 H         -6.0313886186        4.0389448525       -0.4122160521
 H         -4.5906168687        4.0804706215       -1.4202500123
 C         -5.2884566094        2.0913994520       -0.9423359813
 H         -5.0695560095        1.4666636023       -0.0733173210
 H         -6.3400434495        1.9351608823       -1.1928146411
 C         -4.4614633297        1.5940829312       -2.1279901911
 H         -4.6726143401        0.5315718612       -2.2712288006
 H         -4.7637153696        2.1241655709       -3.0337538813
 C         -2.9455113396        1.7542870307       -1.9512600614
 H         -2.6611317693        2.8013592506       -2.0534198819
 H         -2.4431849899        1.1772769302       -2.7314691212
 H         -4.6436250587        3.1954118429        1.5001594682
 H         -4.3040014582        4.8407439725        0.9608342374
 H         -2.3270274586        3.9526376012       -0.3342466025
 H         -2.2159916285        3.8335137520        1.4295166976
 O         -2.0928680193        1.4875073021        1.6949714886
 C         -1.8185583797        0.1407350221        1.8622793592
 O         -1.5537292697       -0.1855415475        3.0396573693
 O         -2.1370900905       -0.9182079994       -1.5870679803
 C         -1.5249344806       -2.1684045784        0.9780607203
 C         -0.3976006109       -2.5258817993        0.0389181303
 C         -0.4240729313       -3.3988014597       -1.0402170593
 C          0.6968966085       -3.5669954605       -1.8372838794
 C          1.8603566788       -2.8635060008       -1.5970257198
 C          1.9026466193       -1.9853155503       -0.5193908702
 C          0.7903444894       -1.8406422696        0.2894317098
 H          0.8356812897       -1.1475835692        1.1190841195
 N          3.0715552295       -1.2590448206       -0.2260025807
 S          2.9014678102        0.3046866498        0.3882038086
 O          2.7095138003        0.2241899005        1.8151753787
 O          1.9005851803        1.0339307298       -0.3592613116
 C          4.5292558803        0.9489607490        0.0452974681
 C          5.5665251903        0.6020850890        0.8906742482
 C          6.8422996304        1.0650489085        0.6108667578
 C          7.0590020406        1.8621467179       -0.5035041226
 C          6.0081282206        2.2037012679       -1.3413188926
 C          4.7296568905        1.7422698684       -1.0682740223
 H          3.8804770105        1.9861390285       -1.6864760723
 H          6.1785001607        2.8261060974       -2.2048800929
 H          8.0527869907        2.2214654374       -0.7189752629
 H          7.6609177104        0.8033803785        1.2615610778
 H          5.3465526602       -0.0114946205        1.7486413485
 H          3.7421014194       -1.2827832212       -0.9827655408
 H          2.7231737887       -2.9840661214       -2.2341701699
 H          0.6507724482       -4.2470816209       -2.6744906390
 H         -1.3184335315       -3.9341218395       -1.3003337290
 H         -1.0990891605       -2.2039418781        1.9951106902
 C         -2.8117432609       -2.9762601079        1.0502317708
 C         -3.6172861212       -3.4379740082       -0.1238748489
 C         -2.9342538915       -4.4414322580        0.7585693515
 H         -3.5512999316       -5.0317240175        1.4199581718
 H         -2.0680823117       -4.9663146085        0.3909967216
 H         -4.6923516012       -3.3492934278       -0.0557296788
 H         -3.2359652513       -3.2311438688       -1.1102433791
 H         -3.3932220507       -2.6169921674        1.8976509707
