  62
        -98.94504162
 C         -1.1595766318       -1.8375613709       -0.6832811201
 C         -0.4826167318       -2.3639203216        0.4466816497
 C          0.9463351385       -2.6738633186        0.2479411068
 C          1.5196326138       -2.4539778464       -0.9475067399
 C          2.9680779072       -2.6795294003       -1.2685738659
 C          3.8075319471       -1.4189583088       -1.0215276192
 C          3.6022277213       -0.7912400345        0.3572215028
 H          4.2948606357        0.0499771566        0.4390509024
 H          2.5950455726       -0.3751020528        0.4264772543
 C          3.8179014618       -1.7486715953        1.5369022505
 H          4.3952231498       -2.6173366863        1.2161415715
 H          4.4020426829       -1.2326016333        2.3017872240
 C          2.5223877583       -2.2117378798        2.2070622522
 H          1.8925639041       -1.3423855343        2.4146121353
 H          2.7787224784       -2.6673600136        3.1679081510
 C          1.6949011244       -3.2382499914        1.4221262551
 H          2.3371039544       -4.0644568824        1.1068640146
 H          0.9323341203       -3.6346457632        2.0994604947
 H          4.8600097031       -1.6801293244       -1.1472994531
 H          3.5483453635       -0.6724551423       -1.7758541736
 H          3.3435824506       -3.5019271849       -0.6626347133
 H          3.0443414435       -2.9527999272       -2.3225921106
 O          0.8344871182       -1.9664320180       -2.0137613664
 C         -0.5051660725       -1.6328146784       -1.9014146304
 O         -1.0037137311       -1.1728224980       -2.9481686362
 H         -1.2369300337        0.0943596703        1.1393929732
 C         -1.8576381580        0.7083708830        0.5042360239
 C         -2.6561208495        0.1164495651       -0.4647616883
 C         -3.4607433613        0.9287673704       -1.2547056766
 C         -3.4593764680        2.3013610195       -1.0806036512
 C         -2.6344523478        2.8898947938       -0.1391013538
 C         -1.8215926478        2.0873192550        0.6536940550
 N         -0.9551595416        2.6558845631        1.6048142796
 S          0.6522697022        2.1866774216        1.6341812517
 O          0.7631201148        0.8167441339        2.0568966283
 O          1.2973877504        3.1725261667        2.4732939684
 C          1.2177051403        2.3711059727       -0.0465057567
 C          0.9724772907        1.3592142747       -0.9522587462
 C          1.3633193192        1.5247841103       -2.2711755105
 C          1.9974033742        2.6949343839       -2.6592487401
 C          2.2418955783        3.7020173626       -1.7371858738
 C          1.8438822626        3.5443734623       -0.4194864349
 H          2.0174547223        4.2986878942        0.3308473821
 H          2.7381795292        4.6089005756       -2.0430665792
 H          2.3016350961        2.8191705166       -3.6865495458
 H          1.1558983325        0.7372203897       -2.9797760382
 H          0.4797067797        0.4569078633       -0.6255426203
 H         -1.0189768970        3.6621468832        1.6689825068
 H         -2.6144746716        3.9622904393       -0.0183119908
 H         -4.0912882562        2.9214722512       -1.6976367815
 H         -4.0753541987        0.4789463801       -2.0202406978
 C         -2.6103921937       -1.3778364926       -0.6717712164
 H         -2.9908176859       -1.5758088457       -1.6874944994
 C         -3.5009749124       -2.1386400589        0.2975132180
 C         -3.9815564689       -1.5642286599        1.5924749886
 C         -4.9403575914       -1.7461200408        0.4564609565
 H         -5.6827830975       -2.5265575165        0.5256698166
 H         -5.2761476443       -0.8586021900       -0.0582068592
 H         -3.6748945780       -0.5622267969        1.8508167448
 H         -4.0404804630       -2.2281080396        2.4413609966
 H         -3.2836037108       -3.2013148765        0.2968700480
 O         -1.0193633136       -2.5852322087        1.5612017407
