  62
        -98.94965086
 C          1.6891845751        1.2196143919        0.3395882485
 C          1.3271446939        0.1560166535       -0.5195721635
 C          1.8843503060       -1.1570124517       -0.1831644645
 C          2.6510962163       -1.2946717599        0.9133467792
 C          3.2636659812       -2.5762823563        1.4097812376
 C          4.5877285245       -2.9456239197        0.7262983850
 C          4.4626008346       -3.4378868285       -0.7161387429
 H          3.7254123113       -4.2401125604       -0.7607122800
 H          5.4282877760       -3.8659002357       -0.9923059347
 C          4.0989684242       -2.3439141879       -1.7295688833
 H          4.7447588926       -2.4310029142       -2.6061250613
 H          4.2871028077       -1.3626362706       -1.2880036495
 C          2.6533776294       -2.3939854231       -2.2238898352
 H          2.4880619328       -3.3187316921       -2.7808481948
 H          2.4955021958       -1.5550701696       -2.9059650885
 C          1.6032666342       -2.3016392025       -1.1088951442
 H          1.5584732043       -3.2366227122       -0.5502792906
 H          0.6259826370       -2.1265313745       -1.5656213764
 H          5.0487133944       -3.7385465256        1.3198101341
 H          5.2503760013       -2.0776981273        0.7597671604
 H          3.4524785352       -2.4360272283        2.4765591591
 H          2.5474016387       -3.3903555299        1.2921107185
 O          2.9518445254       -0.2525522617        1.7342051668
 C          2.4806983245        1.0232473327        1.4689669028
 O          2.8296286070        1.8858550974        2.3028806172
 H         -0.4970237890        1.1826862090        1.6262286416
 C         -1.0458840747        1.7519339245        0.8897510249
 C         -0.3623447364        2.5628340827       -0.0073295300
 C         -1.0987063043        3.2930774695       -0.9321918756
 C         -2.4783026423        3.1859947553       -0.9733890728
 C         -3.1490756837        2.3355062223       -0.1135482775
 C         -2.4217655784        1.6101684949        0.8228192916
 N         -3.0503325515        0.7121605452        1.7117792295
 S         -2.6473322570       -0.9095368851        1.5650826331
 O         -3.4769165822       -1.5887401515        2.5380607870
 O         -1.2248419535       -1.0826724914        1.7073693869
 C         -3.1896232517       -1.3505192369       -0.0769242684
 C         -2.4227466932       -0.9879141638       -1.1659639288
 C         -2.8968631672       -1.2747723352       -2.4375007069
 C         -4.1180824307       -1.9102002945       -2.5986348841
 C         -4.8760453616       -2.2666071750       -1.4931182677
 C         -4.4117815224       -1.9801378584       -0.2199137425
 H         -4.9635934922       -2.2398061313        0.6691660298
 H         -5.8249728084       -2.7625673927       -1.6190642765
 H         -4.4795371362       -2.1288512654       -3.5910842416
 H         -2.3007099613       -0.9933443892       -3.2908267321
 H         -1.4721941412       -0.4970962239       -1.0223617734
 H         -4.0580312667        0.7971596241        1.7273069080
 H         -4.2223846533        2.2301724665       -0.1639344950
 H         -3.0365569810        3.7581433164       -1.6984640774
 H         -0.5905196044        3.9419880526       -1.6266719037
 C          1.1443995614        2.6118996275        0.0783774315
 H          1.4227946870        3.2197116707        0.9522101675
 C          1.7946124575        3.2022867461       -1.1569186301
 C          2.0285028721        4.6787344807       -1.2614040906
 C          3.1846815582        3.7500943204       -1.0468376995
 H          3.8726390871        3.5813578058       -1.8616739998
 H          3.6491838423        3.7230113406       -0.0714611695
 H          1.7161893909        5.2951697217       -0.4320096823
 H          1.9269021618        5.1504538883       -2.2271748355
 H          1.5420036495        2.6563292356       -2.0587433385
 O          0.5705138595        0.2972085077       -1.5165427279
