  62
        -98.93914662
 C         -1.8974529002       -0.7359358130        0.7195823428
 C         -2.1423754168       -0.2273140567       -0.5795591794
 C         -2.6906263469        1.1349363327       -0.6361690923
 C         -2.8391873354        1.8483594258        0.4934683704
 C         -3.3643228760        3.2550022729        0.5927377887
 C         -4.8964447517        3.3471457862        0.6231773617
 C         -5.5927842245        3.0582458132       -0.7074055635
 H         -6.6337673632        3.3682395401       -0.5971243402
 H         -5.1493637512        3.6760793593       -1.4887421899
 C         -5.5595587679        1.5838534004       -1.1335570710
 H         -6.5533830572        1.2787119738       -1.4684544416
 H         -5.3077570242        0.9612338318       -0.2718276274
 C         -4.5836390690        1.2744731617       -2.2689092418
 H         -4.6164954896        0.1998888306       -2.4655711433
 H         -4.9009565332        1.7927147406       -3.1763234391
 C         -3.1275996985        1.6574923376       -1.9715065919
 H         -2.4878380354        1.2006259247       -2.7305126172
 H         -3.0053231424        2.7394676041       -2.0155720014
 H         -5.2714014342        2.6626165671        1.3877127622
 H         -5.1547543332        4.3628148749        0.9314893734
 H         -2.9774261432        3.8491295547       -0.2356563909
 H         -2.9740739643        3.6660863797        1.5263992057
 O         -2.4988206990        1.3580641659        1.7165259327
 C         -2.0381029261        0.0594730146        1.8585281560
 O         -1.7849891381       -0.2649543884        3.0378668628
 O         -1.9266913555       -0.8650182301       -1.6422077782
 C         -1.3584449470       -2.1388142503        0.9348066802
 C         -0.2053147610       -2.3968676486       -0.0052332069
 C         -0.1042069211       -3.5150095004       -0.8216903425
 C          1.0031192016       -3.6875192564       -1.6345037785
 C          2.0280366713       -2.7609800866       -1.6458402792
 C          1.9302914910       -1.6302880307       -0.8403753851
 C          0.8248414254       -1.4638413738       -0.0245241265
 H          0.7581998790       -0.5856476391        0.6037295750
 N          2.9324566764       -0.6460884239       -0.8665787355
 S          3.1833960524        0.3169716721        0.4910683593
 O          3.2423855230       -0.5021739437        1.6819402935
 O          2.2141051455        1.3854909731        0.4932676379
 C          4.8019301825        0.9692111662        0.1224720427
 C          5.9166601861        0.3361875742        0.6397490010
 C          7.1738265057        0.8284947419        0.3263393764
 C          7.2948097414        1.9381880184       -0.4965799794
 C          6.1671091893        2.5639019285       -1.0070785637
 C          4.9070290452        2.0771359056       -0.6969672329
 H          4.0019814214        2.5346470545       -1.0616451046
 H          6.2644327777        3.4284842393       -1.6436446466
 H          8.2739011744        2.3199982518       -0.7389987826
 H          8.0517737354        0.3462219477        0.7248081380
 H          5.7725072476       -0.5166541486        1.2833860254
 H          3.7979127051       -0.9659785832       -1.2785384189
 H          2.8895891195       -2.8984867682       -2.2811554831
 H          1.0689182221       -4.5598987324       -2.2669767635
 H         -0.8983371918       -4.2430619331       -0.8369384617
 H         -0.9455383258       -2.1278796315        1.9586419418
 C         -2.4232223260       -3.2262194588        0.9074585140
 C         -3.8597696530       -2.9095975052        1.1966710731
 C         -3.4455748076       -3.3149638718       -0.1841494950
 H         -3.7346720397       -4.2942989378       -0.5365858449
 H         -3.4127298812       -2.5628202966       -0.9557621010
 H         -4.4274468856       -3.6078790609        1.7933925534
 H         -4.1175774513       -1.8750052805        1.3731092287
 H         -2.0532282961       -4.1652123928        1.3077943168
