  62
        -98.94509482
 C          0.8918040031        1.1359057736        0.7327077087
 C          1.1455368842        0.4638484511       -0.4886956789
 C          2.0945021609       -0.6563588120       -0.4043943337
 C          2.5161468561       -1.0897067514        0.7956688480
 C          3.4753233172       -2.2222892801        1.0428817220
 C          4.9506210372       -1.8052919542        0.9618680827
 C          5.4659256639       -1.5153998267       -0.4486953165
 H          5.2319743495       -2.3582470493       -1.0996195443
 H          6.5536187429       -1.4468706505       -0.3831518961
 C          4.9270135414       -0.2182203583       -1.0685031970
 H          5.7506109587        0.3371927909       -1.5227540111
 H          4.5116823595        0.4167166434       -0.2822635674
 C          3.8676954884       -0.4248429229       -2.1516706219
 H          4.3125354177       -0.9453023452       -3.0024344553
 H          3.5360924818        0.5580595145       -2.4961441106
 C          2.6331206769       -1.2106493752       -1.6878920182
 H          2.8837401132       -2.2643218981       -1.5747381166
 H          1.8529841641       -1.1076733341       -2.4451598694
 H          5.5443413446       -2.6201775569        1.3826333658
 H          5.1007413261       -0.9262702221        1.5933640531
 H          3.2886159965       -3.0291874305        0.3338747932
 H          3.2755340663       -2.5881145004        2.0525801775
 O          2.0858147430       -0.5367458083        1.9627942990
 C          1.3199893725        0.6186032656        1.9572226932
 O          1.0757750576        1.0735305235        3.0938671362
 O          0.6362521996        0.7783104770       -1.5928622606
 C          0.0930407395        2.4257233302        0.7813383244
 C         -1.1491319396        2.3073928453       -0.0649319789
 C         -1.4120200382        3.1044005061       -1.1712702895
 C         -2.5820901048        2.9358593132       -1.8899844726
 C         -3.5080873448        1.9763741024       -1.5247742707
 C         -3.2546548771        1.1759146133       -0.4162931302
 C         -2.0843357871        1.3481412024        0.3040450653
 H         -1.8966117250        0.7294274035        1.1703477650
 N         -4.1837781839        0.2082721501       -0.0073575404
 S         -3.6962655049       -1.1777651337        0.7706452664
 O         -4.8154018293       -2.0832897051        0.6097864488
 O         -3.3235758748       -0.8883420281        2.1334588374
 C         -2.3012387764       -1.8287068639       -0.1301291149
 C         -1.2176354103       -2.3120507850        0.5728963525
 C         -0.1863678285       -2.9252991846       -0.1194726862
 C         -0.2513073000       -3.0332331430       -1.4992432235
 C         -1.3363951927       -2.5236369124       -2.1939046079
 C         -2.3768467995       -1.9230921035       -1.5052296812
 H         -3.2402345072       -1.5356137837       -2.0208244003
 H         -1.3770555456       -2.5975232407       -3.2686116374
 H          0.5489334519       -3.5171981528       -2.0357738012
 H          0.6589330713       -3.3165101831        0.4235669077
 H         -1.1994432568       -2.1988046389        1.6462256496
 H         -4.9562040347        0.0499396249       -0.6366570308
 H         -4.4197638452        1.8453521337       -2.0871966189
 H         -2.7727859057        3.5564778849       -2.7522554990
 H         -0.6908492056        3.8406919166       -1.4851122787
 H         -0.2304065182        2.5233172579        1.8313458517
 C          0.9216951997        3.6629680653        0.4630683829
 C          2.3796694742        3.7208852614        0.8067401757
 C          1.9489980716        3.6837051396       -0.6270636861
 H          2.0538642901        4.5835486947       -1.2152685703
 H          2.1025002894        2.7751846776       -1.1871716277
 H          2.7768976129        4.6425214340        1.2048292810
 H          2.8278172142        2.8345974340        1.2329383932
 H          0.3575219964        4.5771543389        0.6202784301
