  62
        -98.94580500
 C         -2.4836399816       -1.1123708522       -0.0491667262
 C         -3.0580109647       -0.2012442218        0.8689286333
 C         -3.5233235534        1.0703846708        0.3068779428
 C         -3.3871027830        1.3063403592       -1.0108827238
 C         -3.8188009976        2.5523461832       -1.7351893392
 C         -2.7859112477        3.6866172606       -1.6824275293
 C         -2.6549224674        4.3833081891       -0.3274596474
 H         -2.0646226222        5.2875495024       -0.4879637842
 H         -3.6415398808        4.6934787068        0.0186090218
 C         -1.9704844315        3.5371080064        0.7555953874
 H         -1.2248552457        4.1436983998        1.2759409375
 H         -1.4264691778        2.7127812338        0.2852615139
 C         -2.9210784782        2.9760720033        1.8142474895
 H         -2.3373169858        2.3659871056        2.5089104441
 H         -3.3622016869        3.7993643466        2.3804265291
 C         -4.0534646392        2.1054627255        1.2527988338
 H         -4.5292164394        1.5835578981        2.0866942122
 H         -4.7972646972        2.7293443573        0.7584877476
 H         -1.8124431916        3.2882849190       -1.9801750034
 H         -3.0814422896        4.4328069896       -2.4235840415
 H         -4.7686880441        2.9031967792       -1.3311861476
 H         -3.9658382419        2.2697875380       -2.7796898599
 O         -2.8347671532        0.4032571290       -1.8623362215
 C         -2.3295483167       -0.8046814774       -1.4015377005
 O         -1.7940791317       -1.5023936875       -2.2825855971
 O         -3.1672317922       -0.4361124756        2.1038131465
 C         -1.9065516264       -2.4145765268        0.4820663778
 C         -0.4040614573       -2.3321830572        0.3670129007
 C          0.3745808826       -3.2205607413       -0.3609095040
 C          1.7413816385       -3.0244964029       -0.4707023570
 C          2.3577900709       -1.9468560259        0.1385728481
 C          1.5877144172       -1.0579192624        0.8777205241
 C          0.2240886399       -1.2610224736        0.9928519347
 H         -0.3750476705       -0.5607030694        1.5630072391
 N          2.2072213621        0.0596145622        1.4871647965
 S          2.7107042596        1.2394487691        0.3916148542
 O          2.8040691210        2.4625361816        1.1594507725
 O          1.8536994840        1.2776723956       -0.7729043850
 C          4.3462760103        0.7032851560       -0.0582477641
 C          5.3099634947        0.6650255327        0.9308862206
 C          6.5871993531        0.2392801988        0.6033776843
 C          6.8770862038       -0.1368151653       -0.7000589305
 C          5.8986414544       -0.0904620099       -1.6814967457
 C          4.6180731124        0.3331581610       -1.3603431016
 H          3.8223001128        0.3786809318       -2.0868151632
 H          6.1253434336       -0.3839318800       -2.6938889015
 H          7.8716795548       -0.4686715243       -0.9529733501
 H          7.3506928290        0.2010059126        1.3634844497
 H          5.0407090483        0.9707711870        1.9280425967
 H          1.6119700612        0.4992528749        2.1768203419
 H          3.4202040898       -1.7886700215        0.0489139315
 H          2.3338745218       -3.7191918860       -1.0461093141
 H         -0.0904652088       -4.0567604109       -0.8562013168
 H         -2.1666450754       -2.4328841681        1.5506807293
 C         -2.5177666758       -3.6221134100       -0.1916562893
 C         -2.4852001867       -4.9529452378        0.4970245921
 C         -3.7779964300       -4.2064329248        0.3700115935
 H         -4.5241964156       -4.5761504510       -0.3169647287
 H         -4.1912732459       -3.7422511367        1.2536417257
 H         -2.3454707838       -5.8399975765       -0.1016512505
 H         -2.0204593267       -4.9992298381        1.4701895258
 H         -2.4160204412       -3.5984142150       -1.2700900979
