  62
        -98.95003484
 C         -1.9084124129       -1.0368414228        0.0264687803
 C         -1.3375752238       -1.8201933302       -1.0068523536
 C         -0.2635661612       -2.7342766067       -0.6002181140
 C          0.0857543294       -2.8206651446        0.6963042092
 C          1.1183578527       -3.7478612689        1.2786591593
 C          2.5604266085       -3.2291081437        1.1983739572
 C          3.1764651658       -3.2417418064       -0.2006458498
 H          4.2472987554       -3.0650784663       -0.0837607190
 H          3.0550831016       -4.2299332439       -0.6456281327
 C          2.6036255702       -2.1761389453       -1.1442815097
 H          2.0833233142       -1.4105815215       -0.5646330895
 H          3.4159530785       -1.6642390340       -1.6663110849
 C          1.6501855246       -2.7059172898       -2.2153882704
 H          1.2690327975       -1.8432100932       -2.7693998025
 H          2.1979284398       -3.3420224153       -2.9150772057
 C          0.4540132335       -3.4981238187       -1.6707078383
 H          0.7854583784       -4.4662671254       -1.2942795519
 H         -0.2493505585       -3.6624491213       -2.4911239384
 H          2.5936957067       -2.2122066301        1.5956534494
 H          3.1695824958       -3.8633233669        1.8462482135
 H          0.8579019985       -3.8764793719        2.3314422257
 H          1.0534717802       -4.7179014462        0.7846327419
 O         -0.5099281433       -2.0747915210        1.6636099812
 C         -1.4829086440       -1.1329214341        1.3511515320
 O         -1.8798911944       -0.4711771972        2.3281693669
 O         -1.7160125903       -1.7640078825       -2.2079008149
 C         -2.9618008622       -0.0013253324       -0.3327123891
 C         -2.3816998263        1.3696824368       -0.0805645071
 C         -2.9259303119        2.2958303644        0.7986398064
 C         -2.2889430689        3.5055217839        1.0174358680
 C         -1.0982406584        3.8076460987        0.3828655371
 C         -0.5498982139        2.8921045589       -0.5099608047
 C         -1.2073561635        1.6960209983       -0.7499237260
 H         -0.7863409623        0.9938028878       -1.4553355348
 N          0.6521276597        3.1779101126       -1.1800633965
 S          1.8601167056        2.0376303964       -1.3584329133
 O          2.9636532944        2.7761805262       -1.9323088354
 O          1.3770753719        0.9175367242       -2.1212785828
 C          2.2954658494        1.5339376865        0.2967995811
 C          1.4444347728        0.7023831489        0.9968743634
 C          1.7662002472        0.3502680275        2.2983235640
 C          2.9359156749        0.8238563519        2.8726347075
 C          3.7849489499        1.6532256731        2.1552137297
 C          3.4605928046        2.0186897471        0.8586633536
 H          4.0893020518        2.6616266708        0.2642407223
 H          4.6950621729        2.0176544025        2.6036109235
 H          3.1837472691        0.5418684147        3.8837999334
 H          1.0906938491       -0.2872948196        2.8484964397
 H          0.5417655685        0.3398822322        0.5293331109
 H          1.0522463362        4.0758406774       -0.9489635175
 H         -0.5954694813        4.7441142614        0.5708668478
 H         -2.7191164780        4.2173004720        1.7054298239
 H         -3.8402624230        2.0676011951        1.3204340225
 H         -3.1201099536       -0.1116724166       -1.4156589013
 C         -4.2681529994       -0.2635983790        0.3833419355
 C         -5.5489497244        0.2683661566       -0.1846240592
 C         -5.2597479124       -1.2009956719       -0.2352203712
 H         -5.8176803284       -1.8609203167        0.4119674057
 H         -5.0013967919       -1.6408697597       -1.1876568333
 H         -6.3104089286        0.6170228482        0.4963278099
 H         -5.4916064775        0.8276509676       -1.1062987966
 H         -4.1585486363       -0.2952612145        1.4610222072
