  62
        -98.94314123
 C          2.5823010801        0.0831406486        0.3602083289
 C          2.6710145506        1.0973172582       -0.6290682614
 C          2.0921064515        2.3988380987       -0.2891802517
 C          1.5217924818        2.5742189394        0.9159000084
 C          0.8461777627        3.8266881100        1.4037512181
 C         -0.6095615373        3.9493627808        0.9319285884
 C         -0.7845326974        4.3393283805       -0.5368294417
 H         -0.1631077068        5.2079146500       -0.7591737121
 H         -1.8261953572        4.6406974611       -0.6643138316
 C         -0.4758119983        3.2106654599       -1.5305177614
 H         -1.2550431185        3.1809764102       -2.2963991813
 H         -0.5037987488        2.2500655701       -1.0103378511
 C          0.8602876117        3.3488672688       -2.2611009018
 H          0.8330422521        4.2267260687       -2.9115844620
 H          0.9962052510        2.4650125786       -2.8896611915
 C          2.0827430119        3.4656341784       -1.3425863620
 H          2.1136065527        4.4521695785       -0.8802094924
 H          2.9805834217        3.3349865476       -1.9522038322
 H         -1.0917767267        4.7100927313        1.5508342182
 H         -1.1131242979        2.9960979012        1.1152928488
 H          1.4126112732        4.7029256896        1.0862302977
 H          0.8548393429        3.7809369904        2.4949727381
 O          1.5094050714        1.6013853197        1.8621226687
 C          1.9917987105        0.3252877994        1.6011073990
 O          1.8528262202       -0.4570802102        2.5637381593
 O          3.2144955202        0.9157007275       -1.7528797515
 C          3.0291482491       -1.3027132718       -0.0762203307
 C          1.8658795286       -1.9630365413       -0.7822489003
 C          2.0074055779       -2.5355870018       -2.0402717801
 C          0.9080593575       -3.0495874213       -2.7060190497
 C         -0.3550209624       -2.9662959203       -2.1488327195
 C         -0.5038693917       -2.4030495298       -0.8859998596
 C          0.6082051587       -1.9451798103       -0.1974501100
 H          0.4723365792       -1.5257335999        0.7882369999
 N         -1.7649237215       -2.2676458988       -0.2856368694
 S         -2.0435208404       -0.8503184084        0.6019614502
 O         -1.3045603199        0.2505347610        0.0311826397
 O         -1.8225182503       -1.1352498981        1.9976862302
 C         -3.7905110804       -0.6223778174        0.3199618505
 C         -4.6859515007       -1.3980452465        1.0324818809
 C         -6.0422530507       -1.2452274558        0.7929922411
 C         -6.4781446403       -0.3250032458       -0.1491667291
 C         -5.5679399699        0.4478801534       -0.8541099195
 C         -4.2095184200        0.2985678326       -0.6209655297
 H         -3.4638328197        0.8808323120       -1.1386014901
 H         -5.9091844496        1.1653895734       -1.5826850297
 H         -7.5343534902       -0.2070813852       -0.3324772889
 H         -6.7528426609       -1.8418646851        1.3417395015
 H         -4.2993763710       -2.0905847966        1.7620296210
 H         -2.5302481718       -2.4808377485       -0.9106574192
 H         -1.2192791227       -3.3271896700       -2.6853965992
 H          1.0312636270       -3.4904463617       -3.6835590796
 H          2.9807735678       -2.5510150026       -2.5074533603
 H          3.8216622891       -1.1406896626       -0.8206730209
 C          3.5740888688       -2.1925099518        1.0199153795
 C          4.5203938980       -3.2966327726        0.6569530796
 C          5.0201582189       -2.0939793726        1.3983461791
 H          5.2838693291       -2.1958357425        2.4399984691
 H          5.6277495493       -1.3795517532        0.8622665588
 H          4.4431572075       -4.2326605623        1.1881330199
 H          4.7964143277       -3.4001443031       -0.3813378904
 H          2.8644572688       -2.3772974511        1.8157999797
