  62
        -98.94369527
 C          1.9594900856        1.3246903617       -0.2012214496
 C          1.8131308074       -0.0174413683        0.2250065767
 C          3.0152253313       -0.6347716787        0.7993911287
 C          4.1493431103        0.0804959723        0.9084745691
 C          5.4510025766       -0.4084104038        1.4836352746
 C          6.3176887468       -1.1912884335        0.4874139282
 C          5.8137948291       -2.5940857588        0.1445260576
 H          6.6234426126       -3.1042717934       -0.3812346501
 H          5.6262061241       -3.1465576659        1.0657952737
 C          4.5589159425       -2.6191734115       -0.7393599535
 H          4.6953267977       -3.3456091037       -1.5436209463
 H          4.4263323611       -1.6421942450       -1.2097701985
 C          3.2719257498       -2.9925394125       -0.0035761258
 H          3.3396600121       -4.0221621194        0.3545784915
 H          2.4436727696       -2.9349253769       -0.7141237144
 C          2.9424304112       -2.0812856645        1.1856742456
 H          1.9185162927       -2.2875501881        1.5073837220
 H          3.6160199706       -2.2888403038        2.0167407505
 H          6.4127836066       -0.6040524062       -0.4289486431
 H          7.3137874124       -1.2841111693        0.9264331191
 H          6.0049875402        0.4786653878        1.7985019384
 H          5.2562018977       -1.0248889210        2.3617926055
 O          4.2393044618        1.3784120190        0.5114031865
 C          3.1563891332        2.0258522233       -0.0636574096
 O          3.3796049824        3.2080517823       -0.3962593848
 H         -1.8451257828        1.4354628802       -1.4288891011
 C         -1.6877599098        1.6560422843       -0.3844174525
 C         -0.4198500291        1.9811032659        0.0726236332
 C         -0.2573677276        2.2703616589        1.4249700238
 C         -1.3275742544        2.2127504484        2.2967154713
 C         -2.5900708346        1.8770265447        1.8390352931
 C         -2.7663390562        1.5972530885        0.4912109109
 N         -4.0545174474        1.2705293707        0.0187328749
 S         -4.7913229167       -0.1281011635        0.5701603748
 O         -6.1039450092       -0.1366434421       -0.0348118295
 O         -4.7497584073       -0.1451946642        2.0096742064
 C         -3.8239165036       -1.4711180556       -0.0974250188
 C         -2.5337325545       -1.6567734235        0.3576510228
 C         -1.7650007993       -2.6642620583       -0.2029896084
 C         -2.2992008331       -3.4704199156       -1.1961475304
 C         -3.5998195201       -3.2762942906       -1.6373331038
 C         -4.3688656697       -2.2621825792       -1.0902732434
 H         -5.3806535999       -2.0684540318       -1.4082551224
 H         -4.0124902470       -3.9063899759       -2.4089870243
 H         -1.6959977119       -4.2529861081       -1.6294089500
 H         -0.7455285777       -2.7840380105        0.1256680276
 H         -2.1318720877       -1.0164939710        1.1261021066
 H         -4.1323600503        1.3061466067       -0.9883847978
 H         -3.4317215430        1.8089021213        2.5083464830
 H         -1.1800229963        2.4329357604        3.3435298401
 H          0.7278996233        2.5322573237        1.7873190772
 C          0.7825018966        2.0407656751       -0.8376881242
 H          1.0828138204        3.0938666437       -0.9404637443
 C          0.5252997289        1.4698792509       -2.2178184890
 C         -0.0533005087        2.3298574698       -3.3003511019
 C          1.3874726738        1.9215089268       -3.3565618122
 H          1.6908671523        1.1947855846       -4.0951859069
 H          2.1415292117        2.6647250290       -3.1409349185
 H         -0.2782998479        3.3575344223       -3.0576977582
 H         -0.7370847699        1.8828051950       -4.0065495651
 H          0.2444864023        0.4228355956       -2.1880659559
 O          0.7403738292       -0.6652203780        0.1338502696
