  62
        -98.93418042
 C          2.6382788749        0.0601364963        0.5660216002
 C          2.2891210052       -0.5561547404       -0.6620617745
 C          1.8275504368       -1.9486406409       -0.5766063920
 C          1.7490991697       -2.5555240825        0.6197407792
 C          1.2611399082       -3.9543590275        0.8823364174
 C         -0.2352411126       -4.1792917739        0.5850780996
 C         -0.5153759513       -4.7786443937       -0.7990555246
 H          0.3767987992       -5.3051209598       -1.1409343777
 H         -1.3044506365       -5.5273675636       -0.7036835886
 C         -0.9666934891       -3.7868344063       -1.8756402947
 H         -2.0221192710       -3.5526137955       -1.7197078898
 H         -0.8765573836       -4.2831426134       -2.8448505025
 C         -0.2095337880       -2.4584433672       -1.9251823811
 H         -0.5439384664       -1.8118552851       -1.1101557358
 H         -0.4771969505       -1.9470388715       -2.8526697020
 C          1.3245507540       -2.5852778695       -1.8396578873
 H          1.6311098807       -3.6289421336       -1.8931793732
 H          1.7861606505       -2.0439292854       -2.6681467776
 H         -0.7691079801       -3.2358936240        0.7097734310
 H         -0.6131797750       -4.8685969832        1.3421194289
 H          1.4508791405       -4.1401430966        1.9414187889
 H          1.8626645776       -4.6590261072        0.3039427503
 O          2.1291677813       -1.9428595747        1.7749498103
 C          2.5256357734       -0.6165478511        1.7810851834
 O          2.7549308675       -0.1576472437        2.9210623297
 O          2.3449870937        0.0188652538       -1.7795331975
 C          2.9315744754        1.5503339687        0.6454162702
 C          1.8603152504        2.2808638608       -0.1310717515
 C          2.1023966786        3.2925733955       -1.0483570534
 C          1.0481851929        3.8816712854       -1.7279894919
 C         -0.2533489793        3.4629070234       -1.5290793218
 C         -0.5046998116        2.4406547513       -0.6173597613
 C          0.5443665724        1.8934713856        0.0970439703
 H          0.3400394851        1.1208616400        0.8251949747
 N         -1.8040078046        1.9317046042       -0.4560302378
 S         -2.1909608537        0.8348961328        0.7525248248
 O         -2.0405136002        1.4398566230        2.0601269736
 O         -1.4785527360       -0.3979724186        0.5311583910
 C         -3.9187817916        0.5976742413        0.3866565077
 C         -4.2600575754       -0.2704238427       -0.6331761486
 C         -5.5986743448       -0.4437880524       -0.9463732552
 C         -6.5687119540        0.2514126492       -0.2392345209
 C         -6.2115030462        1.1178301050        0.7828215774
 C         -4.8739426081        1.2955608834        1.1007343958
 H         -4.5490662555        1.9503156233        1.8933435487
 H         -6.9678147562        1.6542048667        1.3328003047
 H         -7.6100100214        0.1144869715       -0.4845015913
 H         -5.8796839910       -1.1189543805       -1.7384009969
 H         -3.4706741976       -0.7927413147       -1.1491059383
 H         -2.5400804895        2.6002210661       -0.6297442308
 H         -1.0673025016        3.9057174588       -2.0816468034
 H          1.2479610203        4.6704106725       -2.4375228278
 H          3.1134486149        3.6074767519       -1.2482743050
 H          2.7984360281        1.8035897677        1.7117861368
 C          4.3495814511        1.9594259938        0.2792168431
 C          5.4744029977        0.9697164455        0.3299261302
 C          5.0115848396        1.5110826196       -0.9875141805
 H          5.6519746057        2.2110334652       -1.5042476504
 H          4.4441326384        0.8666638270       -1.6392876668
 H          6.4270098216        1.2962399466        0.7198048108
 H          5.2267132571       -0.0523929167        0.5789829257
 H          4.5827439766        2.9628967208        0.6225186826
