  62
        -98.93150608
 C         -1.7531325906       -0.8660706419        0.7975388435
 C         -2.1074013947        0.5071122454        0.7572786960
 C         -3.5320474568        0.8184247549        0.5751104118
 C         -4.4105067227       -0.1944137345        0.4670085024
 C         -5.8813114508       -0.0499524393        0.1964996252
 C         -6.1127301064        0.2656340040       -1.2951086827
 C         -6.7017624979        1.6508125382       -1.5628368128
 H         -6.6181084881        1.8396935867       -2.6352448218
 H         -7.7647034340        1.6389035546       -1.3126189594
 C         -6.0541150580        2.8105835813       -0.8002582059
 H         -6.3898906517        3.7326318040       -1.2796975161
 H         -6.4348064391        2.8356015981        0.2219080745
 C         -4.5206572845        2.8098880797       -0.7532195988
 H         -4.1095565395        2.2510656618       -1.5942488692
 H         -4.1775578005        3.8410656220       -0.8588734072
 C         -3.9201974487        2.2710592465        0.5586000965
 H         -4.6073153625        2.4744974271        1.3847141152
 H         -2.9901600371        2.8092388936        0.7638157227
 H         -5.1586663756        0.1674606929       -1.8173998320
 H         -6.7835532172       -0.4798355915       -1.7249492191
 H         -6.3552121455       -0.9948848964        0.4629943406
 H         -6.2951474386        0.7366795021        0.8235532020
 O         -4.0375185737       -1.4978242400        0.5155047076
 C         -2.7075431289       -1.8762657584        0.6737051649
 O         -2.5409905775       -3.1086252132        0.6856197194
 O         -1.2621029720        1.4346057506        0.8790043182
 C         -0.2797313468       -1.1731393497        0.9883474085
 C          0.4367953603       -1.3376172460       -0.3271204802
 C         -0.0775739803       -2.1275623723       -1.3500034114
 C          0.6222694400       -2.2789686409       -2.5334714705
 C          1.8509032384       -1.6671327817       -2.7113131682
 C          2.3721663711       -0.8733906570       -1.6964527481
 C          1.6530305847       -0.7005267653       -0.5221379320
 H          2.0504057028       -0.0656364113        0.2538627154
 N          3.6077925884       -0.2316788539       -1.8433463569
 S          4.6309641547       -0.0651403117       -0.5281377656
 O          5.9427741323        0.1105434585       -1.1124966423
 O          4.4856358869       -1.1643221374        0.3964162113
 C          4.1237866504        1.4624998261        0.2307694150
 C          4.0944315457        2.6002596407       -0.5509799069
 C          3.7059312046        3.7983081541        0.0258298366
 C          3.3567810129        3.8386310702        1.3673119482
 C          3.3962471639        2.6885718575        2.1400392292
 C          3.7845158491        1.4870704451        1.5687793624
 H          3.8233314583        0.5687500212        2.1342239620
 H          3.1220454404        2.7209006536        3.1823964104
 H          3.0503154848        4.7712360071        1.8141951359
 H          3.6729451507        4.6956200517       -0.5709105518
 H          4.3756431308        2.5297807721       -1.5884642939
 H          4.1068947943       -0.4476754352       -2.6935222815
 H          2.4018735920       -1.8009355042       -3.6298613705
 H          0.2132864553       -2.8936807196       -3.3214004498
 H         -1.0226739728       -2.6287760802       -1.2038220506
 H          0.1310250219       -0.2701896039        1.4684649402
 C         -0.0165205372       -2.3376991136        1.9331100992
 C          0.4564071406       -3.6829089006        1.4811804971
 C          1.3900201207       -2.7750564828        2.2213115021
 H          1.6532767698       -3.0241035207        3.2385291100
 H          2.1918048934       -2.3150238360        1.6607042947
 H          0.0566261897       -4.5491599123        1.9858415404
 H          0.6241345128       -3.8373553668        0.4270437457
 H         -0.7032520724       -2.3331326317        2.7741281822
