  62
        -98.94444531
 C         -1.7930076468       -0.6660340959       -0.0723444286
 C         -2.9349636103       -1.2695158439        0.5069323230
 C         -4.2205732507       -0.9313841702       -0.1132047979
 C         -4.2514972648       -0.1106099809       -1.1790131211
 C         -5.4826740113        0.3099642924       -1.9352493941
 C         -6.2232281695        1.4998939406       -1.3094402936
 C         -6.9849114903        1.1872572831       -0.0207528652
 H         -7.6342107367        0.3265280840       -0.1837935688
 H         -7.6272852758        2.0452345860        0.1874451304
 C         -6.0880841679        0.9348021818        1.1992452335
 H         -6.4746964711        1.4904102258        2.0566162522
 H         -5.0843084665        1.3162941476        0.9974871932
 C         -5.9860151227       -0.5318496123        1.6182243150
 H         -6.9648344973       -0.8877013455        1.9470439250
 H         -5.3008343308       -0.5989770181        2.4671207283
 C         -5.4698567518       -1.4683819103        0.5178310713
 H         -6.2410318775       -1.6242977133       -0.2360437481
 H         -5.2246413704       -2.4306735305        0.9736578296
 H         -6.9389759176        1.8641095101       -2.0501031666
 H         -5.5028594145        2.2998770574       -1.1228141338
 H         -6.1637735239       -0.5364721030       -2.0273978614
 H         -5.1493713561        0.5989898628       -2.9343335307
 O         -3.1280993295        0.4334335239       -1.7194734771
 C         -1.8761940777        0.1892224848       -1.1708168721
 O         -0.9412259643        0.7781067142       -1.7463648977
 O         -2.8815117096       -2.0496130501        1.4950340481
 C         -0.4290378771       -0.9572812596        0.5257364975
 C          0.2453504534        0.3235114530        0.9488780774
 C         -0.4714499236        1.2379589256        1.7172629257
 C          0.1043582055        2.4255911009        2.1222687263
 C          1.4092889716        2.7263313669        1.7731677837
 C          2.1400714227        1.8148829665        1.0211042103
 C          1.5604571438        0.6169404978        0.6233564133
 H          2.1407095805       -0.0703331341        0.0313317348
 N          3.4794715803        2.0732752237        0.7064310444
 S          4.2138570085        1.4724823271       -0.6674424741
 O          5.4218935374        2.2626193778       -0.7897329996
 O          3.3391587812        1.4790402308       -1.8155680848
 C          4.6664713331       -0.1961356196       -0.2399414454
 C          5.1094195944       -0.4694297765        1.0391129530
 C          5.5009841075       -1.7619822975        1.3493901061
 C          5.4537382470       -2.7522701528        0.3801149149
 C          5.0121731530       -2.4605517422       -0.9012661998
 C          4.6134893321       -1.1706504651       -1.2165817233
 H          4.2495651554       -0.9027459008       -2.1961989788
 H          4.9757748720       -3.2309394656       -1.6553944404
 H          5.7598056392       -3.7574202107        0.6234387208
 H          5.8428110801       -1.9930610087        2.3453603780
 H          5.1345217194        0.3234573564        1.7675349283
 H          3.8125321068        2.9950376941        0.9462903818
 H          1.8584884967        3.6585502592        2.0799870431
 H         -0.4674787982        3.1281246188        2.7099174248
 H         -1.4936401767        1.0062941416        1.9845600054
 H         -0.6315385317       -1.5525399618        1.4291657461
 C          0.3996945179       -1.7929302060       -0.4267928170
 C          1.4139939844       -2.7578773740        0.1086003928
 C          0.1440844819       -3.2674611178       -0.5019766638
 H          0.1894468769       -3.7493346099       -1.4670357332
 H         -0.6154573713       -3.6703922603        0.1519374654
 H          2.3367645410       -2.8905647610       -0.4354346185
 H          1.5218727256       -2.8226214516        1.1805781687
 H          0.6206232069       -1.2734446532       -1.3536073098
