  62
        -98.94026538
 C         -2.4249205513       -1.1566815337        0.0808490138
 C         -3.3538585383       -0.4833089625        0.9139667307
 C         -4.2024359158        0.5236035511        0.2634298780
 C         -4.0362936163        0.7719550852       -1.0483733714
 C         -4.7932339915        1.8065569321       -1.8286755417
 C         -4.0582306280        3.1541893251       -1.8244211738
 C         -3.6185941970        3.6135709758       -0.4341636455
 H         -2.8586257039        2.9260505766       -0.0548919444
 H         -3.1395011143        4.5882875902       -0.5494783163
 C         -4.7583149365        3.7222339166        0.5885896496
 H         -5.7177386446        3.7593721545        0.0715243186
 H         -4.6488329054        4.6604051932        1.1367487144
 C         -4.7872815564        2.6002342100        1.6282603001
 H         -3.7994724983        2.4977542321        2.0853785625
 H         -5.4838042639        2.8884312010        2.4201195077
 C         -5.2255764739        1.2232720684        1.1134622606
 H         -5.3840677029        0.5794530432        1.9837142503
 H         -6.1725554243        1.3157893249        0.5776899825
 H         -3.1688621050        3.0655001621       -2.4525318104
 H         -4.7137002352        3.9063445521       -2.2669399987
 H         -5.7872352784        1.9210809352       -1.4006055101
 H         -4.8882288423        1.4583852734       -2.8585035818
 O         -3.1106847986        0.1352533369       -1.8076445779
 C         -2.2724779992       -0.8344470797       -1.2688919667
 O         -1.4622697018       -1.3070698209       -2.0855570194
 O         -3.4647725232       -0.7116477666        2.1490737042
 C         -1.5332875689       -2.2030645912        0.7244506123
 C         -0.0935615905       -1.9818621235        0.3311730497
 C          0.7033335765       -2.9509856901       -0.2622030291
 C          2.0205937013       -2.6731954324       -0.5845872601
 C          2.5699371229       -1.4314261838       -0.3273787148
 C          1.7836023569       -0.4543133540        0.2696336935
 C          0.4688045152       -0.7395699389        0.6017724196
 H         -0.1436667025        0.0231574877        1.0691798374
 N          2.3273748859        0.8187135229        0.5174775256
 S          3.7912923016        0.9141586087        1.3339087570
 O          3.9675078878       -0.2019306341        2.2342474676
 O          3.8019207847        2.2306646452        1.9342147990
 C          5.0138408067        0.8557100719        0.0413765683
 C          6.0141515845       -0.0956866295        0.0832639243
 C          6.9612419847       -0.1168415702       -0.9288065845
 C          6.8922423902        0.8095715081       -1.9579793151
 C          5.8828610086        1.7605733762       -1.9835724798
 C          4.9335790952        1.7878664783       -0.9745033161
 H          4.1354349620        2.5112489609       -0.9563986546
 H          5.8320091797        2.4790552085       -2.7858318917
 H          7.6291078486        0.7905236020       -2.7453639966
 H          7.7468599570       -0.8549596169       -0.9105747582
 H          6.0241175697       -0.7992426231        0.9004194375
 H          1.6644558776        1.4765969223        0.9007970660
 H          3.5924957025       -1.2101690329       -0.5858566026
 H          2.6263291919       -3.4345369408       -1.0518924187
 H          0.2889938761       -3.9184825248       -0.4920802297
 H         -1.6165894037       -2.0010450562        1.8064228061
 C         -2.0036361307       -3.6357598678        0.5212453847
 C         -3.4458182481       -3.9476942454        0.2581251069
 C         -2.4253343619       -4.1606487924       -0.8173277385
 H         -2.1600669461       -5.1754766001       -1.0755458409
 H         -2.4022619859       -3.4769461739       -1.6509839724
 H         -3.8786777606       -4.8121356498        0.7389437051
 H         -4.1289536488       -3.1165348955        0.1583164105
 H         -1.4772904893       -4.3281425650        1.1713761299
