  62
        -98.94000506
 C         -2.2223665482       -0.7830046408        0.0457961104
 C         -2.5380726796        0.2249512502        0.9872039388
 C         -3.1452461590        1.4467202001        0.4427244588
 C         -3.3267174081        1.5534925195       -0.8866151206
 C         -3.9781110182        2.7190615773       -1.5716898464
 C         -5.4906348946        2.5017507380       -1.7190547944
 C         -6.1812587661        2.0688221727       -0.4258273176
 H         -7.2478200935        1.9765797639       -0.6417770525
 H         -5.8233801113        1.0754044476       -0.1456531394
 C         -5.9797928998        3.0305568030        0.7535664006
 H         -5.6494329705        4.0029927787        0.3867479404
 H         -6.9402834529        3.1809722102        1.2508281733
 C         -5.0012957356        2.5317945784        1.8185222313
 H         -5.2765674434        1.5188941933        2.1232718485
 H         -5.0980032100        3.1749900166        2.6973310594
 C         -3.5210060293        2.5285541482        1.4162738300
 H         -3.2435752729        3.5106273693        1.0277147920
 H         -2.9324321421        2.3369966704        2.3185298642
 H         -5.9386180960        3.4292697537       -2.0800849402
 H         -5.6572879866        1.7278405509       -2.4717676929
 H         -3.7848071390        3.6248769824       -1.0003327661
 H         -3.5367946438        2.8240277202       -2.5641730873
 O         -2.9727262234        0.5803155317       -1.7640078709
 C         -2.4185992961       -0.6134165836       -1.3251978075
 O         -2.1483854558       -1.4187546569       -2.2348176242
 H          0.3408991212       -0.2792680559        0.5489769851
 C          0.6664025447       -1.1878028557        0.0555130121
 C         -0.2243903597       -2.2496302193       -0.0514995286
 C          0.2095437545       -3.4134004103       -0.6708146767
 C          1.4916861264       -3.4956780880       -1.1874392133
 C          2.3671065796       -2.4297811211       -1.0967344802
 C          1.9497256132       -1.2663034188       -0.4625282477
 N          2.8291046966       -0.1617025123       -0.3690831632
 S          4.2471479802       -0.3880543344        0.5248924281
 O          4.9761638669       -1.4978343279       -0.0308707439
 O          3.9375198408       -0.4732056084        1.9373135102
 C          5.1010117632        1.1357507858        0.1762716328
 C          5.1370713155        2.1349461396        1.1291184924
 C          5.7890984003        3.3215993683        0.8316041640
 C          6.3874060448        3.4878792573       -0.4080458271
 C          6.3414027142        2.4752047313       -1.3550259716
 C          5.6922533137        1.2863814849       -1.0634104423
 H          5.6374952900        0.4707422037       -1.7650823788
 H          6.8090077755        2.6084340295       -2.3172445441
 H          6.8946905485        4.4118699198       -0.6367353491
 H          5.8277970343        4.1094601656        1.5666367790
 H          4.6641157835        1.9591127151        2.0821642551
 H          2.3529418414        0.6440760258        0.0174892720
 H          3.3680094060       -2.4904323947       -1.4901671609
 H          1.8123113903       -4.4043982606       -1.6741817273
 H         -0.4566909135       -4.2559779847       -0.7560593216
 C         -1.6045376467       -2.0798824445        0.5361096889
 H         -1.4945020066       -1.9584648162        1.6246000068
 C         -2.5308235952       -3.2468577557        0.2682611099
 C         -2.4913456237       -4.4584543971        1.1494247951
 C         -3.6526705545       -3.5146860266        1.2246906392
 H         -4.6046020216       -3.8328313086        0.8268846225
 H         -3.7337852908       -2.8697901415        2.0877539194
 H         -2.6483288242       -5.4279587383        0.7013757122
 H         -1.7850526662       -4.4591366354        1.9659720336
 H         -2.7306509863       -3.3855841812       -0.7882080679
 O         -2.3148212611        0.1115368580        2.2239387202
