  62
        -98.94103429
 C         -2.0794617567       -1.0548869724        0.0448489168
 C         -2.5969477568       -0.2653581427        1.1050521833
 C         -3.3115482120        0.9586525189        0.7250025992
 C         -3.4086954914        1.2815273716       -0.5771127357
 C         -4.1460352240        2.4730759192       -1.1143155072
 C         -5.6086108327        2.1293695348       -1.4304181154
 C         -6.3316167297        1.4022378258       -0.2966637956
 H         -7.3613162210        1.2376152442       -0.6210330441
 H         -5.8766259240        0.4189295677       -0.1575478696
 C         -6.3304326536        2.1537913939        1.0417898387
 H         -6.0907416098        3.2047244660        0.8762681690
 H         -7.3351920950        2.1130905646        1.4673838836
 C         -5.3781704665        1.5770482799        2.0908932136
 H         -5.5507854427        0.5027184833        2.1918153448
 H         -5.6127238142        2.0384541482        3.0536626094
 C         -3.8834047363        1.8017155905        1.8298321438
 H         -3.6970194207        2.8607784255        1.6392054143
 H         -3.3398096388        1.5153949381        2.7349022709
 H         -6.1361414037        3.0551949789       -1.6667544537
 H         -5.6297368792        1.4903719854       -2.3162754431
 H         -4.0997734148        3.2788740875       -0.3840713534
 H         -3.6503971759        2.7985780562       -2.0307105814
 O         -2.8748426608        0.5211335323       -1.5647937060
 C         -2.1931069547       -0.6579114456       -1.2872257390
 O         -1.7571541468       -1.2286575875       -2.3062008597
 H          0.3288966833       -1.2300579608       -1.3661633311
 C          0.8326341513       -1.4327128560       -0.4316750855
 C          0.1249071181       -2.0199223915        0.6093249904
 C          0.7865656686       -2.2649107846        1.8059786358
 C          2.1213720040       -1.9285656374        1.9548637878
 C          2.8192149505       -1.3360335379        0.9174519725
 C          2.1645158361       -1.0844980549       -0.2811245212
 N          2.8647888681       -0.4431744416       -1.3333339826
 S          3.0992786540        1.2054655903       -1.0590659193
 O          1.9987806874        1.7754429360       -0.3121782061
 O          3.3602268682        1.7845571391       -2.3588524306
 C          4.5874677026        1.2480637016       -0.0841266121
 C          4.5342057259        1.6589467538        1.2332055301
 C          5.7035084746        1.6701760447        1.9779196560
 C          6.8971837655        1.2724677650        1.3949914639
 C          6.9335145583        0.8643690666        0.0696520566
 C          5.7685732769        0.8509282282       -0.6806281009
 H          5.7496346066        0.5465263716       -1.7137842944
 H          7.8637894601        0.5566251355       -0.3798410907
 H          7.8047453219        1.2808658845        1.9776883852
 H          5.6769572849        1.9867049999        3.0082164547
 H          3.5814001364        1.9532791142        1.6435775628
 H          2.3908054829       -0.5473872593       -2.2214102350
 H          3.8574454182       -1.0684292487        1.0267959654
 H          2.6219416693       -2.1240662426        2.8906228458
 H          0.2410381085       -2.7026375632        2.6289988109
 C         -1.3424458954       -2.3226119058        0.4455907443
 H         -1.7404907529       -2.5721681640        1.4417016030
 C         -1.6245930242       -3.5050181902       -0.4707401476
 C         -0.5797940254       -4.1742347530       -1.3085251165
 C         -1.1220138377       -4.8687634345       -0.0979838459
 H         -1.7754508710       -5.7171094686       -0.2328560737
 H         -0.4776959794       -4.9375260860        0.7655823568
 H         -0.8745102489       -4.5225894575       -2.2867869710
 H          0.4299148568       -3.7966782318       -1.2692938812
 H         -2.6190397522       -3.4549136184       -0.9020352752
 O         -2.4701340886       -0.5806709728        2.3182828277
