  62
        -98.93906362
 C         -2.3501216705       -1.2439780888       -0.1134804984
 C         -3.3490743805       -0.8006819880        0.7879772712
 C         -4.2334834203        0.2908830619        0.3384491003
 C         -4.0434294800        0.8096248610       -0.8887928800
 C         -4.7826003296        1.9422917907       -1.5506157809
 C         -4.3667887994        3.3185674710       -1.0081791418
 C         -4.2594975696        3.4028459420        0.5120083881
 H         -3.8671101595        4.3922995021        0.7615610075
 H         -3.5288711398        2.6700973221        0.8600645787
 C         -5.5723510798        3.2152006928        1.2689456280
 H         -6.2898238096        3.9667136427        0.9322238674
 H         -5.3651770699        3.4039558435        2.3253328979
 C         -6.2218640901        1.8340866729        1.1534168789
 H         -6.7425529499        1.7212351123        0.2063137389
 H         -6.9833869702        1.7672755136        1.9357612588
 C         -5.2694090703        0.6629698628        1.3718581199
 H         -5.8630375705       -0.2451527870        1.5311528804
 H         -4.7213998204        0.8154295033        2.3085925498
 H         -5.0816029692        4.0609063309       -1.3675284725
 H         -3.3864848193        3.5642139305       -1.4247616319
 H         -5.8543775997        1.7966988210       -1.4541490910
 H         -4.5345769795        1.8987689899       -2.6135296309
 O         -3.0629617199        0.3578683402       -1.7212502896
 C         -2.1950969002       -0.6592434597       -1.3694078487
 O         -1.3650005301       -0.9392002405       -2.2579904084
 O         -3.5034894108       -1.2989968172        1.9352312615
 C         -1.4260100408       -2.3563193087        0.3567220226
 C         -0.0834538907       -1.7558936787        0.6954649723
 C          0.1921786691       -1.3638065079        2.0017015921
 C          1.3922473192       -0.7527975179        2.3163470419
 C          2.3376378794       -0.5112263388        1.3349892619
 C          2.0637248696       -0.8819054397        0.0255203021
 C          0.8688734395       -1.5162309796       -0.2841754577
 H          0.6580596196       -1.7805530303       -1.3088213375
 N          3.0084482898       -0.6175685405       -0.9841649880
 S          3.5758648301        0.9604401293       -1.1041565890
 O          2.6122696402        1.9148608198       -0.6047785498
 O          3.9845484204        1.1171225282       -2.4832345090
 C          5.0287754500        0.9604420197       -0.0727850987
 C          5.1440331300        1.8713903404        0.9588911106
 C          6.2869493899        1.8544517307        1.7434715108
 C          7.2892904497        0.9326726903        1.4830366216
 C          7.1596697997        0.0265571696        0.4408981122
 C          6.0202945498        0.0388676793       -0.3475932779
 H          5.8812992698       -0.6442281313       -1.1687243575
 H          7.9414350196       -0.6884188407        0.2410938929
 H          8.1768102596        0.9208206405        2.0957703418
 H          6.3892630199        2.5585408012        2.5535822704
 H          4.3360326101        2.5657076406        1.1271474700
 H          2.7114928698       -0.9460635211       -1.8926972278
 H          3.2710990895       -0.0268989488        1.5707253017
 H          1.5935989791       -0.4583555673        3.3350900617
 H         -0.5551818010       -1.5275403572        2.7650533521
 H         -1.8744671210       -2.7261413580        1.2883412527
 C         -1.3357724509       -3.5050730894       -0.6263125066
 C         -0.7529301112       -4.8072831992       -0.1676312356
 C         -2.2221495712       -4.6985738691       -0.4407956859
 H         -2.6224297111       -5.1827114196       -1.3189853357
 H         -2.8994850613       -4.6924235484        0.4005632039
 H         -0.1413220612       -5.3694719298       -0.8563982552
 H         -0.4323462014       -4.8726123186        0.8610387945
 H         -1.1387066907       -3.1925579701       -1.6438250768
