  62
        -98.93905240
 C          1.9560520709        0.4345773297       -0.1731409918
 C          2.9851580764        0.7693145835        0.7417404789
 C          4.2065689476       -0.0522255826        0.7042628408
 C          4.2856464739       -1.0749763573       -0.1671556194
 C          5.3715036621       -2.1044801793       -0.4008116239
 C          6.7735064677       -1.9051490918        0.1692656297
 C          7.5544736147       -0.7430367569       -0.4433094942
 H          8.4939363599       -0.6374523298        0.1036371839
 H          7.7989687301       -0.9959926315       -1.4781155488
 C          6.8332255938        0.6024217730       -0.4558968490
 H          7.5008341258        1.3346736079       -0.9180948397
 H          5.9441395976        0.5360773491       -1.0862903865
 C          6.4307444072        1.1415481354        0.9154172545
 H          7.3049471445        1.1745083013        1.5684567416
 H          6.0794736944        2.1672221314        0.7748544995
 C          5.3120870547        0.3642996425        1.6311486937
 H          4.8576641953        1.0302542944        2.3703353349
 H          5.7074048557       -0.4953040276        2.1670749254
 H          6.7305244400       -1.8076581688        1.2500430346
 H          7.3282327998       -2.8232202451       -0.0432546017
 H          5.4407165448       -2.2217876444       -1.4870293605
 H          4.9722149850       -3.0491587076       -0.0148908977
 O          3.2590284450       -1.3743608830       -1.0144408631
 C          2.0837487323       -0.6409788822       -1.0497108099
 O          1.2666532348       -1.0482588153       -1.8984251774
 O          2.8876052383        1.7198250200        1.5624942334
 C          0.6884854836        1.2728216070       -0.1456260581
 C         -0.4210090394        0.4740396651        0.4929179218
 C         -0.6400410854        0.5641517612        1.8638754598
 C         -1.6415965710       -0.1725593584        2.4700666230
 C         -2.4441103860       -1.0152731373        1.7217335590
 C         -2.2257489065       -1.1188688180        0.3541807090
 C         -1.2290141785       -0.3696451519       -0.2550179088
 H         -1.0559475978       -0.4733738967       -1.3146449645
 N         -3.0450852924       -1.9695985048       -0.4119223988
 S         -4.6965527605       -1.7398784832       -0.2543093091
 O         -5.1675292420       -2.4245012285        0.9240690762
 O         -5.2723669499       -2.1737128776       -1.5079158451
 C         -4.8846310340        0.0224856994       -0.0447759168
 C         -5.3415278988        0.5295421285        1.1542397699
 C         -5.4198070197        1.9039036733        1.3139325815
 C         -5.0363192530        2.7421781022        0.2790504757
 C         -4.5819079162        2.2170199702       -0.9210904267
 C         -4.5020533939        0.8443328862       -1.0865542296
 H         -4.1564743146        0.4034348016       -2.0078742703
 H         -4.2845327329        2.8719910827       -1.7241808814
 H         -5.0920196902        3.8117885697        0.4061043113
 H         -5.7742274852        2.3154771089        2.2451321326
 H         -5.6258715181       -0.1582125791        1.9336658316
 H         -2.7734489172       -2.0177043316       -1.3831781019
 H         -3.2296340471       -1.5994821057        2.1733827926
 H         -1.8004413355       -0.0900052182        3.5343776712
 H         -0.0066581187        1.2129515556        2.4518573654
 H          0.9184007369        2.1165213518        0.5183610011
 C          0.3129269631        1.8146481603       -1.5104061280
 C         -0.7624561434        2.8541131161       -1.6086130304
 C          0.6661847514        3.2265775374       -1.8647194500
 H          0.9711947587        3.4416158328       -2.8780553077
 H          1.1823849219        3.8151669916       -1.1206498965
 H         -1.4395873406        2.8137728867       -2.4477956700
 H         -1.2185638785        3.1855200699       -0.6882286109
 H          0.3759924793        1.0778157987       -2.3011796339
