  62
        -98.94892718
 C          2.2371726502        0.8472721134        0.0793713442
 C          1.5913270617        0.1134126438       -0.9443661843
 C          1.9879839609       -1.2946683964       -1.0746764339
 C          2.8834491527       -1.8084318485       -0.2124967386
 C          3.3823446289       -3.2241885964       -0.2318234357
 C          2.5445091214       -4.1420191453        0.6674000549
 C          1.0370502777       -4.0318096775        0.4381169348
 H          0.5552358697       -4.7668959022        1.0876910418
 H          0.6874688532       -3.0490862525        0.7634731027
 C          0.5922653131       -4.2636026282       -1.0125887467
 H          1.3742253702       -4.7872976272       -1.5649426627
 H         -0.2897069793       -4.9076551548       -1.0051256525
 C          0.2031552836       -2.9843424257       -1.7561400937
 H         -0.3492383563       -3.2650922273       -2.6571349266
 H         -0.4676541159       -2.3976107580       -1.1232753315
 C          1.3691155374       -2.0870023083       -2.1914692163
 H          0.9770151752       -1.3503937882       -2.8988947012
 H          2.1250763106       -2.6871252739       -2.7034192083
 H          2.8646842440       -5.1723484693        0.4980281910
 H          2.7500252472       -3.8897945780        1.7105332295
 H          3.3646021158       -3.5912057102       -1.2564682892
 H          4.4135787340       -3.2257218482        0.1268674570
 O          3.4343724277       -1.0889105289        0.8001222731
 C          3.1157232964        0.2471215967        0.9784648547
 O          3.6738548772        0.7849689368        1.9590121157
 O          0.7417867800        0.6158645450       -1.7254839350
 C          1.9241236104        2.3237873993        0.2632731890
 C          0.4337983721        2.4916230678        0.4205824514
 C         -0.3309743532        3.3898109278       -0.3122058976
 C         -1.7090498790        3.4143449290       -0.1787188115
 C         -2.3529971197        2.5326006518        0.6705605035
 C         -1.5924933595        1.6533772597        1.4286582502
 C         -0.2135607954        1.6564082786        1.3231187983
 H          0.3693016190        0.9538800484        1.9073229774
 N         -2.2635357902        0.6799407857        2.2299088037
 S         -2.2740395123       -0.8037584929        1.4146884298
 O         -3.0141340740       -1.7138854936        2.2640178343
 O         -0.9318560810       -1.2300310791        1.0819354771
 C         -3.2096481594       -0.4203622625       -0.0450431739
 C         -2.5585274560        0.0034718082       -1.1865879629
 C         -3.3192437154        0.3474067887       -2.2938319623
 C         -4.7019781295        0.2662459288       -2.2400381973
 C         -5.3386026370       -0.1605224492       -1.0838435702
 C         -4.5868312849       -0.5050975159        0.0272215578
 H         -5.0322826415       -0.8441028930        0.9480684174
 H         -6.4142326011       -0.2223540150       -1.0445719680
 H         -5.2863454807        0.5378750267       -3.1050793145
 H         -2.8190588756        0.6826288905       -3.1881321361
 H         -1.4806442049        0.0678860793       -1.2035845206
 H         -1.8086743325        0.5331629486        3.1222205097
 H         -3.4274368071        2.5098420068        0.7522964666
 H         -2.2894917194        4.1109578175       -0.7633619568
 H          0.1522689890        4.0580744747       -1.0060035297
 H          2.4142049077        2.6270606886        1.2000184814
 C          2.5079816328        3.1262315741       -0.8807854959
 C          2.8995266499        4.5581765389       -0.6761338789
 C          3.9559998122        3.5070695177       -0.8325315520
 H          4.5273871216        3.4787168795       -1.7480722255
 H          4.5175316592        3.2066718388        0.0404235865
 H          2.7501111880        5.2552648798       -1.4865946013
 H          2.7497884637        4.9820208413        0.3052756333
 H          2.0995760230        2.8365439544       -1.8421196162
