  62
        -98.94092401
 C         -1.8982322783       -1.3164733270        0.6437276168
 C         -1.7978423567        0.0242452770        1.0983497831
 C         -3.0005986613        0.8513607820        0.9659454870
 C         -4.1288742323        0.3059915547        0.4768151210
 C         -5.4569594265        0.9982943970        0.3297739293
 C         -5.6038538231        1.8093099474       -0.9647763417
 C         -4.7858312146        3.0999976639       -1.0176141844
 H         -5.1430594872        3.6710330990       -1.8768839843
 H         -4.9881926825        3.6936933002       -0.1256261181
 C         -3.2736849865        2.8809499764       -1.1632117036
 H         -2.8816101263        3.5466481622       -1.9352627101
 H         -3.0849430038        1.8583208263       -1.4981068109
 C         -2.4663230500        3.1399395224        0.1088468948
 H         -2.5304723572        4.1973639217        0.3749017269
 H         -1.4209566860        2.9044671298       -0.1056357839
 C         -2.9032807306        2.3043795043        1.3196797579
 H         -2.1476228135        2.4057562832        2.1027677292
 H         -3.8555186036        2.6684578219        1.7051185541
 H         -6.6602500767        2.0676017841       -1.0690457740
 H         -5.3331246080        1.1712022156       -1.8091714672
 H         -5.6262693372        1.6483102659        1.1888494810
 H         -6.2171915797        0.2140685050        0.3321365958
 O         -4.1935024717       -0.9875710203        0.0701408692
 C         -3.0758727772       -1.8195652677        0.0898355393
 O         -3.2903347770       -2.9443884354       -0.3958848907
 O         -0.7453329171        0.5017580907        1.5998688438
 C         -0.6279140530       -2.1415056267        0.7473940940
 C          0.2976312242       -1.7951094338       -0.3918713915
 C         -0.1692335780       -1.7354042648       -1.7013374932
 C          0.6879913362       -1.4035042839       -2.7338662020
 C          2.0174485460       -1.1132989355       -2.4798522304
 C          2.4948239743       -1.1706281217       -1.1753295448
 C          1.6328012818       -1.5181866353       -0.1427851904
 H          2.0147444501       -1.5595179454        0.8656520862
 N          3.8458960713       -0.9140258803       -0.9023218216
 S          4.3470776653       -0.0265897507        0.4238209851
 O          5.7680984129        0.1418119535        0.2150074612
 O          3.9571111157       -0.6944393424        1.6386193891
 C          3.5374272914        1.5553873240        0.2758242745
 C          2.2599637403        1.7325438163        0.7669577296
 C          1.6517385409        2.9682511743        0.6087844326
 C          2.3177787652        3.9968852096       -0.0377209406
 C          3.6007519609        3.8012939434       -0.5276781570
 C          4.2165410826        2.5708374807       -0.3715268685
 H          5.2172999051        2.3797275156       -0.7239344460
 H          4.1206061892        4.6025122396       -1.0278892993
 H          1.8355741597        4.9544614892       -0.1567805166
 H          0.6550518589        3.1039506461        0.9977393218
 H          1.7398947666        0.9288329996        1.2626122231
 H          4.3978009539       -0.6768411549       -1.7138705103
 H          2.6833055805       -0.8486695518       -3.2869924629
 H          0.3165876512       -1.3632026368       -3.7467985671
 H         -1.2089940589       -1.9564337581       -1.8969357366
 H         -0.1375127990       -1.8011836329        1.6749859773
 C         -0.8566446560       -3.6379455227        0.8872528293
 C         -0.5673338243       -4.6197512466       -0.2040422760
 C          0.3184425461       -4.5635000880        1.0022288954
 H          0.2726780503       -5.3696715241        1.7186848375
 H          1.3030753239       -4.1357741905        0.8819722314
 H         -1.2437727868       -5.4528584477       -0.3174337268
 H         -0.1793732556       -4.2454127070       -1.1383607882
 H         -1.7125297035       -3.8603067959        1.5155353383
