  62
        -98.94515778
 C         -0.9561647328       -1.2590494458        0.4697957773
 C         -1.5173315736       -0.7498475116       -0.7289311729
 C         -2.3658912573        0.4425876777       -0.5782625247
 C         -2.5650471638        0.9840331869        0.6358894947
 C         -3.3769483203        2.2145219002        0.9386775587
 C         -4.8836744018        1.9527807556        1.0692626604
 C         -5.6116354851        1.6611975992       -0.2435678538
 H         -6.6819558580        1.7172307349       -0.0353759024
 H         -5.3797108631        2.4427907356       -0.9678943142
 C         -5.2992910256        0.2862115169       -0.8506907343
 H         -4.8498210994       -0.3553299190       -0.0893605632
 H         -6.2290777055       -0.1929344114       -1.1653793256
 C         -4.3763416604        0.3261803182       -2.0690740766
 H         -4.8709447725        0.8531578517       -2.8882291084
 H         -4.1893036319       -0.7006311572       -2.3935785347
 C         -3.0198698842        0.9934407570       -1.8086384250
 H         -2.3592042183        0.7864585120       -2.6551041595
 H         -3.1400665193        2.0740510319       -1.7248525298
 H         -5.0345744762        1.1211994356        1.7612955242
 H         -5.3307566008        2.8436059591        1.5164346055
 H         -3.0128670005        2.6023906363        1.8925710395
 H         -3.2008220319        2.9675942559        0.1694435768
 O         -2.0124735607        0.4642675041        1.7638694368
 C         -1.2050783910       -0.6609952727        1.7074307247
 O         -0.7744552022       -1.0312674064        2.8178383171
 H          0.9419029130       -0.4498128539       -1.0872501465
 C          1.7190770072       -1.0483716847       -0.6407541056
 C          1.4002884424       -2.1116427341        0.1886101092
 C          2.4371830501       -2.8742383519        0.7185917219
 C          3.7541977157       -2.5813610267        0.4190363272
 C          4.0682232160       -1.5086018460       -0.3970157374
 C          3.0417167480       -0.7381078399       -0.9275924738
 N          3.3175196403        0.3679343063       -1.7476277827
 S          2.4412693190        1.7727877946       -1.5139219659
 O          1.1489678800        1.6849434363       -2.1425370428
 O          3.3106670844        2.8191491856       -2.0110189390
 C          2.2711997674        1.9200518104        0.2557359124
 C          3.4207331498        2.0361474742        1.0128311010
 C          3.3093168621        2.1294889685        2.3899828506
 C          2.0563844591        2.1077797937        2.9837443887
 C          0.9118335747        2.0005775431        2.2099443408
 C          1.0184317018        1.9018357783        0.8316173274
 H          0.1509564656        1.8047306822        0.1959160610
 H         -0.0616032345        1.9721152557        2.6734412905
 H          1.9664688974        2.1735426465        4.0564538479
 H          4.1961445225        2.2165628570        2.9966439370
 H          4.3774951212        2.0638251708        0.5173725216
 H          4.2998333209        0.5639820647       -1.8758691836
 H          5.0958068377       -1.2700207220       -0.6240486171
 H          4.5466323373       -3.1842675229        0.8347789733
 H          2.2036389974       -3.6988703171        1.3741450375
 C         -0.0351415861       -2.4635995832        0.5112807544
 H         -0.0590496845       -2.8218826396        1.5504055736
 C         -0.4979334839       -3.5933757784       -0.3921314508
 C         -0.2621817468       -5.0182130227        0.0043861784
 C         -1.6489771204       -4.4510411969        0.0367122707
 H         -2.3614655651       -4.7667675647       -0.7103539039
 H         -2.0916589994       -4.2428091467        1.0003478046
 H         -0.0156568796       -5.7305911432       -0.7677979838
 H          0.2208407670       -5.2089284813        0.9503770861
 H         -0.4329774411       -3.3448125711       -1.4438746444
 O         -1.3314501739       -1.2404242391       -1.8730601920
