  62
        -98.93126486
 C         -2.4156663684       -0.4235843363        0.5351382110
 C         -3.2256634594       -0.3211378384       -0.6218316155
 C         -4.3300504867        0.6569819564       -0.5572259435
 C         -4.4918922396        1.4104664525        0.5424696845
 C         -5.5135869916        2.4891125638        0.8029421045
 C         -6.9599832393        2.2153382362        0.3678731228
 C         -7.3985192331        0.7462984062        0.4567131067
 H         -6.6600631740        0.1680161179        1.0148118086
 H         -8.3395202020        0.6896803587        1.0071960961
 C         -7.6185973315        0.1048422593       -0.9155385354
 H         -8.1523462357        0.8143230831       -1.5516387087
 H         -8.2599902477       -0.7715754383       -0.7945546153
 C         -6.3519740188       -0.3572020373       -1.6350890258
 H         -5.9325459506       -1.2280779609       -1.1239332586
 H         -6.6352630527       -0.6823561295       -2.6390263351
 C         -5.2367121312        0.6942858592       -1.7540264741
 H         -4.6145651963        0.4273921272       -2.6124982468
 H         -5.6470752944        1.6875912164       -1.9176276969
 H         -7.1069451123        2.5677332959       -0.6520874191
 H         -7.6014274873        2.8256030782        1.0059540162
 H         -5.4815229614        2.6538197131        1.8826709236
 H         -5.1650073562        3.4101269632        0.3267786865
 O         -3.6665007444        1.3014505809        1.6229018804
 C         -2.6300414798        0.3882994887        1.6508867801
 O         -1.9781064537        0.3867596768        2.7156089522
 H          1.0965973721       -1.1253935816        1.9346324655
 C          1.1444282954       -0.7523697791        0.9199134052
 C          0.0118296521       -0.8069591390        0.1212214276
 C          0.0841153364       -0.3052478141       -1.1747526793
 C          1.2665067369        0.2294183626       -1.6526322138
 C          2.3945191540        0.2819566667       -0.8519884736
 C          2.3317367652       -0.2099530997        0.4443379833
 N          3.4697732771       -0.1429520614        1.2660044228
 S          4.9159683908       -0.7548108106        0.6699064710
 O          4.6828836008       -1.8108670055       -0.2875760927
 O          5.6876608284       -1.1066923011        1.8416059272
 C          5.6786213825        0.6406332965       -0.1299393287
 C          5.8889882800        1.7843823656        0.6151692862
 C          6.4907609004        2.8757490021        0.0094578097
 C          6.8727598476        2.8042695530       -1.3220711519
 C          6.6581760772        1.6472811306       -2.0552643569
 C          6.0554361867        0.5522808790       -1.4556920871
 H          5.8639085387       -0.3659680785       -1.9878091682
 H          6.9566353272        1.5934821768       -3.0899287974
 H          7.3408983710        3.6553868660       -1.7909104959
 H          6.6595429808        3.7771551604        0.5763322458
 H          5.5815856264        1.7983131011        1.6475676727
 H          3.3094635046       -0.4589191644        2.2116728953
 H          3.3169189957        0.6997697567       -1.2210217276
 H          1.3106613073        0.6120500788       -2.6610715401
 H         -0.7945427264       -0.3458478528       -1.8004350885
 C         -1.2616634417       -1.4049089940        0.6609364914
 H         -1.1255861244       -1.5430499401        1.7456468798
 C         -1.5773002049       -2.7744449437        0.0733794242
 C         -0.9028324031       -3.3464096928       -1.1333547041
 C         -0.5901850929       -3.8945383105        0.2243590061
 H         -0.9534335056       -4.8761224979        0.4888533262
 H          0.3745073744       -3.6527911392        0.6467334602
 H         -1.5053659203       -3.9354953615       -1.8076437363
 H         -0.1463278951       -2.7585735922       -1.6283269617
 H         -2.6231891599       -3.0346458337        0.2011846097
 O         -3.0523541221       -0.9940416603       -1.6686530380
