  62
        -98.93097351
 C         -2.0227866299       -1.3176952399        0.2708559602
 C         -2.1707547703       -0.3894568699       -0.7886219497
 C         -2.5171076004        0.9890555600       -0.3920219495
 C         -2.6235997901        1.3004765700        0.9107876805
 C         -3.0256931001        2.6397604099        1.4612585407
 C         -4.5502268501        2.8316571097        1.3288139411
 C         -4.9652021705        3.9518665597        0.3746922912
 H         -6.0372537106        3.8478495296        0.1950811115
 H         -4.8039746605        4.9138859897        0.8653660712
 C         -4.2353601609        3.9848537699       -0.9713892690
 H         -4.8051793211        4.6474369898       -1.6262452388
 H         -3.2520002809        4.4404811500       -0.8458061592
 C         -4.0600300309        2.6317018199       -1.6725508891
 H         -4.2079916312        2.7821020500       -2.7438679090
 H         -4.8218579307        1.9253049398       -1.3422391289
 C         -2.6679859808        1.9947796601       -1.5001072294
 H         -1.9133660608        2.7782907102       -1.3815065496
 H         -2.4185511609        1.4430097302       -2.4117187095
 H         -4.9760406099        3.0432244596        2.3106952112
 H         -4.9841394301        1.8870611397        0.9945085111
 H         -2.7277714098        2.6593928599        2.5098656606
 H         -2.4897963003        3.4259920200        0.9338367406
 O         -2.4525258897        0.3866710399        1.9017730704
 C         -2.1315563696       -0.9254243800        1.6072575703
 O         -1.9864870193       -1.6542519200        2.6106937502
 O         -2.0361776606       -0.6703786898       -2.0074421097
 C         -1.6035908598       -2.7683724899        0.0843174101
 C         -0.1264194397       -2.8932861097        0.3657837497
 C          0.3791323206       -3.9523065997        1.1104700595
 C          1.7316640407       -4.0315670395        1.3912713792
 C          2.5988756205       -3.0451303694        0.9584521390
 C          2.1021411902       -1.9811463794        0.2136840992
 C          0.7521461301       -1.9239847496       -0.0959148505
 H          0.3837267298       -1.0920449596       -0.6784375204
 N          2.9468798099       -0.9545627493       -0.2403995910
 S          2.3231440797        0.6186489406       -0.2326999508
 O          1.5280330600        0.8326891905        0.9560112795
 O          1.6788142994        0.8695885606       -1.4966723806
 C          3.8397615796        1.5545645808       -0.1431938311
 C          4.2965314299        1.9876750908        1.0871619488
 C          5.4970321598        2.6778442609        1.1515716086
 C          6.2177120595        2.9187931911       -0.0085476416
 C          5.7460266993        2.4784612311       -1.2364131315
 C          4.5461557093        1.7886805809       -1.3080515313
 H          4.1338995791        1.4342646409       -2.2383807412
 H          6.3072640490        2.6702014212       -2.1365567116
 H          7.1518032095        3.4552189112        0.0445803582
 H          5.8640851800        3.0236384009        2.1044109485
 H          3.6973522001        1.7834225807        1.9602451090
 H          3.8671641800       -0.9893525592        0.1775168588
 H          3.6501072205       -3.0925115093        1.1987257987
 H          2.1115783509       -4.8583402095        1.9718834790
 H         -0.2993109392       -4.7014679498        1.4913204796
 H         -2.1311617995       -3.3349891300        0.8701290702
 C         -2.0016650300       -3.3713351699       -1.2534364099
 C         -1.0328376803       -3.5758310397       -2.3747974601
 C         -1.5571442000       -4.7571212798       -1.6184258000
 H         -2.2640305100       -5.4106337998       -2.1065572699
 H         -0.8782669997       -5.2589678797       -0.9461100102
 H         -1.3854947306       -3.3938984797       -3.3782459200
 H         -0.0076067503       -3.2772191996       -2.2174023804
 H         -3.0109461501       -3.0932191600       -1.5366279796
