  62
        -98.93829347
 C          1.8901749136        0.7536370215       -0.2351923262
 C          2.4928242111        0.1203691443        0.8760804640
 C          3.5850352645       -0.8215397519        0.5810883133
 C          3.9198293489       -1.0610251879       -0.6985084390
 C          4.9655675419       -2.0084602046       -1.2313197809
 C          6.3239290341       -2.0395779276       -0.5166408018
 C          6.7738523609       -0.6999092406        0.0844018882
 H          7.7914511259       -0.4866110404       -0.2480415057
 H          6.1363278229        0.1072212165       -0.2804163522
 C          6.7709618340       -0.7012580606        1.6150710903
 H          7.4259024617        0.0989560545        1.9680638920
 H          7.1926104825       -1.6461546268        1.9648531623
 C          5.4061877800       -0.4899543814        2.2693836101
 H          5.5241231039       -0.6314230726        3.3464462099
 H          5.0779913999        0.5415968541        2.1156966672
 C          4.2828887718       -1.4141498508        1.7715619634
 H          4.6573108901       -2.4135990585        1.5635306266
 H          3.5293998786       -1.4820291230        2.5611926405
 H          7.0583755178       -2.3737525207       -1.2514098061
 H          6.3045129269       -2.7923138439        0.2703640578
 H          4.5405502676       -3.0165670187       -1.2363439712
 H          5.1073269808       -1.7154722439       -2.2743606049
 O          3.2830476428       -0.4588547641       -1.7424472274
 C          2.2643599147        0.4610407109       -1.5459001049
 O          1.7877941456        0.9308332824       -2.5954737803
 H         -0.3325815538       -0.6164231600        0.4000375298
 C         -0.9288282888       -0.0278750078       -0.2863595422
 C         -0.5049447465        1.2537492684       -0.6191683188
 C         -1.2864050428        2.0044504943       -1.4864102419
 C         -2.4407298309        1.4680508391       -2.0321713840
 C         -2.8467788052        0.1852492461       -1.7168625066
 C         -2.0842894934       -0.5660956564       -0.8301800578
 N         -2.5007522731       -1.8618791443       -0.4831535438
 S         -4.1224471905       -2.1033978741       -0.1486010751
 O         -4.1565906982       -3.2205541951        0.7693432002
 O         -4.8512934414       -2.2816670415       -1.3799030074
 C         -4.6662039090       -0.6088446635        0.6611065168
 C         -4.0270370310       -0.2275423021        1.8242668156
 C         -4.4161774771        0.9461484330        2.4487694033
 C         -5.4333628020        1.7144143998        1.9029593610
 C         -6.0695531942        1.3147095594        0.7382441645
 C         -5.6826435357        0.1428731024        0.1078694728
 H         -6.1469178210       -0.2031475107       -0.8012157606
 H         -6.8613598239        1.9128393098        0.3170628021
 H         -5.7308514636        2.6295148300        2.3901460427
 H         -3.9217637971        1.2578717946        3.3548786029
 H         -3.2420105753       -0.8477698465        2.2269127014
 H         -1.9102327935       -2.3175380398        0.1963784827
 H         -3.7319523498       -0.2519712368       -2.1494951366
 H         -3.0306575276        2.0575151597       -2.7170641588
 H         -0.9861671259        3.0053685565       -1.7476738778
 C          0.7744831985        1.7552077074        0.0037908881
 H          0.6345419810        1.7781032258        1.0947524940
 C          1.1851385978        3.1350435490       -0.4633589837
 C          0.5771827659        4.3529374953        0.1636859386
 C          2.0033962654        3.9948764898        0.4512293935
 H          2.7869124463        4.6024399576        0.0236889670
 H          2.2456830436        3.5943337474        1.4249350128
 H          0.3818267271        5.2115531449       -0.4606016074
 H         -0.1503425345        4.2007954515        0.9462610480
 H          1.4222250945        3.1642011394       -1.5208181641
 O          2.1246805854        0.3213144036        2.0653507950
