  62
        -98.94069554
 C         -1.7397146861       -0.3583596351        0.4658571827
 C         -2.9265970566       -0.5064774121        1.2281255382
 C         -4.1610104890       -0.7290561750        0.4676286086
 C         -4.1165569289       -0.7690285776       -0.8762408493
 C         -5.2844368397       -1.0079662546       -1.7944257854
 C         -6.1026819775        0.2530348144       -2.1044157911
 C         -6.9696460401        0.7653606632       -0.9535317782
 H         -7.6477967815        1.5123102805       -1.3710322310
 H         -7.5819998947       -0.0511257648       -0.5694709996
 C         -6.1804628330        1.4049809439        0.1974170376
 H         -5.1717838248        1.6488767749       -0.1443460266
 H         -6.6554904398        2.3452347089        0.4866682980
 C         -6.0817063961        0.5422244548        1.4555751500
 H         -7.0772421341        0.4014218477        1.8824094017
 H         -5.4731600725        1.0756801151        2.1904012555
 C         -5.4482629772       -0.8366126654        1.2281606500
 H         -5.2231839679       -1.2746083647        2.2037426489
 H         -6.1462315038       -1.4893205920        0.7041345778
 H         -6.7573617391        0.0174441463       -2.9466090187
 H         -5.4194764688        1.0426815685       -2.4257167260
 H         -5.9368937768       -1.7701391654       -1.3674321373
 H         -4.8706267485       -1.3881408861       -2.7308437745
 O         -2.9618716673       -0.6059165276       -1.5726665012
 C         -1.7510367706       -0.3730031107       -0.9299885350
 O         -0.7952268587       -0.2044212745       -1.7086461371
 O         -2.9522763275       -0.4516488224        2.4866079631
 C         -0.4478915916       -0.1029082377        1.2207465438
 C          0.2975713573        1.0563929786        0.6093715010
 C         -0.3544795878        2.2816664633        0.4872764180
 C          0.2805256054        3.3682070996       -0.0794687869
 C          1.5919303636        3.2663060265       -0.5116860526
 C          2.2556877489        2.0544044479       -0.3824200486
 C          1.6062809156        0.9575714159        0.1675383980
 H          2.1340669759        0.0213648820        0.2307151869
 N          3.5861064933        1.9065815949       -0.8058018756
 S          4.6628247553        1.1144882364        0.2018982663
 O          4.3262327291        1.3104818296        1.5932253815
 O          5.9677026419        1.5900215566       -0.2075719218
 C          4.5273684711       -0.6085139704       -0.2231302835
 C          4.5230694672       -0.9682624508       -1.5560315606
 C          4.4671103544       -2.3131069029       -1.8849957563
 C          4.4239689182       -3.2702848811       -0.8825076852
 C          4.4312440264       -2.8926121178        0.4516735356
 C          4.4842514076       -1.5487840454        0.7872043821
 H          4.4831255195       -1.2097257481        1.8110235515
 H          4.3945589405       -3.6378955536        1.2304837053
 H          4.3808659361       -4.3164846601       -1.1417325239
 H          4.4566660968       -2.6110514206       -2.9210498101
 H          4.5579546048       -0.1982876326       -2.3084034993
 H          3.9978341582        2.7359941471       -1.2084423538
 H          2.0934033902        4.1163663596       -0.9494582751
 H         -0.2436785999        4.3071796752       -0.1780088313
 H         -1.3760665787        2.3656274452        0.8337949978
 H         -0.7783900244        0.2065115590        2.2273611089
 C          0.4194448987       -1.3380572354        1.4128166931
 C         -0.1798625559       -2.7114764497        1.4327441083
 C          0.7026967992       -2.2962099713        0.2959622048
 H          1.6918155117       -2.7251007423        0.2288693386
 H          0.2506380150       -2.0904728844       -0.6611584825
 H          0.2005420092       -3.4249896656        2.1480045088
 H         -1.2416086512       -2.7970278534        1.2522647624
 H          1.2279245520       -1.1567601818        2.1155780039
