  62
        -98.93960556
 C         -2.2818606605       -0.8768594192        0.6350548577
 C         -3.4261412145       -0.9161562298       -0.1996444716
 C         -4.4704670411        0.0737573627        0.0990346750
 C         -4.3064281973        0.9469451845        1.1079172404
 C         -5.2917551242        1.9974932175        1.5435601694
 C         -5.2238985892        3.2971343878        0.7298405354
 C         -5.7796581757        3.2051731928       -0.6918654119
 H         -6.7817823514        2.7764736125       -0.6616397682
 H         -5.8731328729        4.2268204447       -1.0653866986
 C         -4.9028710994        2.4027777720       -1.6634249765
 H         -3.8990617535        2.2954374485       -1.2451404438
 H         -4.8003525980        2.9535186687       -2.6011729100
 C         -5.4457374395        1.0162322140       -2.0088452480
 H         -4.7282762926        0.5224629993       -2.6688158508
 H         -6.3890930361        1.1164382366       -2.5501059633
 C         -5.6744911808        0.1079759513       -0.7940029522
 H         -6.5507787056        0.4377705407       -0.2367167706
 H         -5.8489717430       -0.9086015921       -1.1543404245
 H         -5.7977703733        4.0511719700        1.2735757247
 H         -4.1846211627        3.6325119810        0.6943985488
 H         -6.3026911099        1.5912025518        1.4988412627
 H         -5.0559170223        2.2302197096        2.5842453666
 O         -3.1923488881        0.9553288173        1.8885871465
 C         -2.1620519645        0.0580604049        1.6684067673
 O         -1.2054996727        0.1814082350        2.4621155860
 O         -3.5976044020       -1.7276197033       -1.1467685138
 C         -1.1069909288       -1.8309586426        0.4870449231
 C         -0.1724751683       -1.3956062118       -0.6169286176
 C         -0.5827443665       -1.3531331354       -1.9454419371
 C          0.2983665057       -0.9576468179       -2.9348095638
 C          1.5986363283       -0.6025350725       -2.6227096275
 C          2.0214705483       -0.6497989141       -1.2990567355
 C          1.1335606808       -1.0430782274       -0.3074358906
 H          1.4651348874       -1.0554387148        0.7202054971
 N          3.3542599233       -0.3455004472       -0.9702611123
 S          3.7068233852        0.3996651120        0.5019350838
 O          3.6178199774       -0.5813459855        1.5538032454
 O          2.9108260683        1.5970037677        0.6592818749
 C          5.4178580949        0.8204056170        0.2262183826
 C          5.7628758048        2.1184742724       -0.0981380151
 C          7.0955396068        2.4188621360       -0.3342906080
 C          8.0543852455        1.4210959256       -0.2456741366
 C          7.6928109982        0.1224723779        0.0816645100
 C          6.3628532525       -0.1841038816        0.3205882432
 H          6.0355770851       -1.1754108625        0.5871652191
 H          8.4412934403       -0.6501328725        0.1523878933
 H          9.0904223505        1.6575199824       -0.4299912948
 H          7.3798110571        3.4280085610       -0.5855296187
 H          4.9839215038        2.8623242136       -0.1483577693
 H          3.8442043992        0.1099754266       -1.7288307946
 H          2.2841079523       -0.2945854540       -3.3978044030
 H         -0.0321932376       -0.9221115465       -3.9619958809
 H         -1.5993631892       -1.6195059688       -2.1896789273
 H         -0.5508402725       -1.7609816782        1.4325328091
 C         -1.5305423480       -3.2743760653        0.2892180849
 C         -0.5535320722       -4.3623681827        0.6128998477
 C         -1.7503116675       -4.1436353212        1.4884340059
 H         -2.5517175380       -4.8664865668        1.4604444374
 H         -1.5959707617       -3.6999166164        2.4618143911
 H         -0.5306594502       -5.2382164579       -0.0169838667
 H          0.4133747329       -4.0671158062        0.9932784483
 H         -2.1873823217       -3.4185679991       -0.5579142688
