  62
        -98.93888932
 C         -2.3505483797       -0.7529523798        0.5863629905
 C         -3.4228764399       -0.9840667992       -0.3103063494
 C         -4.6917051697       -0.3138215891        0.0156258211
 C         -4.7723972394        0.4653356904        1.1083487315
 C         -5.9840267291        1.2494519705        1.5195946221
 C         -5.9622228389        2.6633410407        0.9218979427
 C         -5.6715407392        2.6960183214       -0.5785545873
 H         -5.7111718190        3.7407713115       -0.8944424668
 H         -4.6507103593        2.3470607813       -0.7511955076
 C         -6.6418000295        1.8665624620       -1.4311721575
 H         -6.9337841095        2.4564290325       -2.3025412972
 H         -7.5487836394        1.6576001219       -0.8627721375
 C         -6.0597650198        0.5533222121       -1.9570662882
 H         -6.7414494400        0.1586494526       -2.7151747683
 H         -5.1022088299        0.7471164622       -2.4467397883
 C         -5.8514018199       -0.5493799884       -0.9115541388
 H         -6.7724220998       -0.6982156085       -0.3446086487
 H         -5.6232925602       -1.4753381682       -1.4471843293
 H         -6.9267056088        3.1352400709        1.1181539731
 H         -5.1896176287        3.2428621704        1.4325744429
 H         -5.9905825389        1.3246557900        2.6082791321
 H         -6.8786195193        0.7207815508        1.1962214420
 O         -3.7248516492        0.6638864098        1.9488261414
 C         -2.5007731693        0.0662573797        1.7105476909
 O         -1.6322553291        0.3314882091        2.5672808409
 O         -3.3530467402       -1.7079894587       -1.3389919198
 C         -0.9722557498       -1.3722663700        0.4238148100
 C         -0.1115388398       -0.6287110797       -0.5700177398
 C         -0.5038018700       -0.4542244590       -1.8931002496
 C          0.3309322399        0.1864604212       -2.7902588795
 C          1.5775362801        0.6400624508       -2.3964418895
 C          1.9770251803        0.4729618101       -1.0758653296
 C          1.1261758803       -0.1463149202       -0.1711338898
 H          1.4458260605       -0.2560070507        0.8553271801
 N          3.2300109305        0.9291198996       -0.6370136396
 S          4.0460984405        0.0060473889        0.5186389098
 O          3.8876983401       -1.4009525609        0.2291679192
 O          3.6364303008        0.4373618484        1.8319648401
 C          5.7285329305        0.5130253487        0.2148823598
 C          6.1833980608        1.6893396284        0.7803891403
 C          7.4810318109        2.0996675582        0.5188410202
 C          8.2969865006        1.3323272884       -0.2994166703
 C          7.8269551503        0.1533541188       -0.8582656607
 C          6.5298560502       -0.2624515211       -0.6018127307
 H          6.1240989900       -1.1756262608       -1.0066668711
 H          8.4645563900       -0.4425684310       -1.4912005111
 H          9.3067544006        1.6537309783       -0.5002018503
 H          7.8510401111        3.0138295179        0.9542447106
 H          5.5159677411        2.2467251282        1.4170010406
 H          3.8362289904        1.2123096499       -1.3946652596
 H          2.2344811901        1.1237898710       -3.1034060994
 H          0.0139909498        0.3189797418       -3.8138237094
 H         -1.4647361402       -0.8297078487       -2.2090306397
 H         -0.4882547297       -1.2781088206        1.4062531000
 C         -1.0104442902       -2.8444334398        0.0531509793
 C          0.2326250997       -3.6616496302        0.2297511287
 C         -0.9434543902       -3.8789561304        1.1333005988
 H         -1.5224394104       -4.7829863102        1.0179662285
 H         -0.8724635900       -3.5323178509        2.1544824590
 H          0.4593266594       -4.4167740799       -0.5074142917
 H          1.1070636498       -3.1680153905        0.6300080088
 H         -1.6342209304       -3.0537887793       -0.8056832107
