  62
        -98.93656353
 C         -2.4702637579       -1.1750105314       -0.0673520515
 C         -3.5062284541       -0.6652035944        0.7559261203
 C         -4.4308458116        0.2972629597        0.1371780485
 C         -4.2571019446        0.6404931081       -1.1503961796
 C         -5.0896850582        1.5735930890       -1.9932435306
 C         -5.5408577278        2.8934493339       -1.3518004385
 C         -4.5614147637        3.4891808702       -0.3298568864
 H         -3.6019639654        2.9716057532       -0.3833049418
 H         -4.3807301622        4.5359861938       -0.5811233218
 C         -5.0906449860        3.4363514004        1.1055048176
 H         -6.1448358099        3.7220274031        1.1004312224
 H         -4.5545647964        4.1762941827        1.7046224960
 C         -4.9410553370        2.0892691151        1.8115992291
 H         -5.4588241266        2.1533075879        2.7716614497
 H         -3.8862858048        1.8997840072        2.0287123479
 C         -5.4823942786        0.8743257032        1.0404851586
 H         -5.7185131764        0.0927681186        1.7676980572
 H         -6.3882995301        1.1253719803        0.4941771223
 H         -5.6929105839        3.6034694599       -2.1665063575
 H         -6.5094535747        2.7535412048       -0.8738408175
 H         -4.4763314536        1.7843429489       -2.8725604135
 H         -5.9702644923        1.0247106230       -2.3394102394
 O         -3.2519024978        0.1212077202       -1.9086248018
 C         -2.3318960666       -0.7809549764       -1.3970637792
 O         -1.4736722380       -1.1419721523       -2.2261677825
 O         -3.6590662996       -1.0090370936        1.9578161366
 C         -1.4843699262       -2.1435080649        0.5659133267
 C         -0.1833489957       -1.4181973847        0.8113663037
 C          0.0357657600       -0.7893737828        2.0334519082
 C          1.2028235479       -0.0849950173        2.2649621299
 C          2.1704979129        0.0174448603        1.2808888593
 C          1.9594832895       -0.6015412031        0.0560446860
 C          0.7942102369       -1.3238692991       -0.1678619661
 H          0.6314201502       -1.7843672647       -1.1299265402
 N          2.9130867063       -0.4704157985       -0.9644854570
 S          4.5392670251       -0.6556443974       -0.6168933485
 O          5.1584028559       -1.0093881072       -1.8754677949
 O          4.7480988418       -1.5723760532        0.4800398643
 C          5.0653169341        0.9811593807       -0.1520960413
 C          5.7509529135        1.1753529246        1.0309657670
 C          6.1582828417        2.4571043889        1.3672878088
 C          5.8755344997        3.5160262282        0.5183397391
 C          5.1890555776        3.3037688608       -0.6680914084
 C          4.7797984051        2.0249126708       -1.0103175985
 H          4.2446399772        1.8189617515       -1.9225227803
 H          4.9703339671        4.1295661671       -1.3259247772
 H          6.1915402177        4.5129228576        0.7824131176
 H          6.6925114323        2.6241735141        2.2887752264
 H          5.9429748760        0.3230254416        1.6631865430
 H          2.6556923998       -0.9254142425       -1.8276507728
 H          3.0806150304        0.5682739905        1.4532307358
 H          1.3602676204        0.3941394838        3.2193119882
 H         -0.7266614086       -0.8513529421        2.7970759908
 H         -1.9175243305       -2.3953668936        1.5432321886
 C         -1.3173284028       -3.4208835106       -0.2304602091
 C         -0.6530357865       -4.5982745334        0.4163079491
 C         -2.1255686877       -4.6266041114        0.1399630198
 H         -2.4904437561       -5.2642536866       -0.6512996799
 H         -2.8035096767       -4.5375435992        0.9761214037
 H         -0.0032757236       -5.2181277368       -0.1826240272
 H         -0.3302882540       -4.4868220709        1.4405324542
 H         -1.1369298723       -3.2561182887       -1.2850995128
