  62
        -98.93763037
 C          1.9428407895       -1.4058462430        0.2196706403
 C          1.8831045821       -0.0227787821        0.5026889061
 C          3.1655939513        0.7109378479        0.5019377930
 C          4.2999212445        0.0345024816        0.2422054723
 C          5.7020359843        0.5734925594        0.1423658619
 C          5.9547700632        1.3209237827       -1.1772866398
 C          4.8360139439        2.2671076511       -1.6060214398
 H          5.0836365574        2.6439068494       -2.6020595302
 H          3.9047193655        1.7047430638       -1.6966736281
 C          4.6153528593        3.4710256986       -0.6932167170
 H          5.5372409712        4.0547943177       -0.6418022143
 H          3.8521594262        4.0974998976       -1.1622973275
 C          4.1601454153        3.1549073469        0.7328696643
 H          3.8163824666        4.0928715350        1.1788419363
 H          4.9918418731        2.8110467217        1.3419371870
 C          2.9946099101        2.1752999389        0.8281283014
 H          2.1760102765        2.5307810730        0.1916439318
 H          2.6008636133        2.2047674631        1.8513400110
 H          6.0811376654        0.5766976394       -1.9675892972
 H          6.8895929151        1.8765010238       -1.0859431745
 H          5.9202630382        1.2085259750        0.9957627576
 H          6.3733681017       -0.2869379070        0.1877426337
 O          4.3072394678       -1.3041155290       -0.0230227070
 C          3.1477194225       -2.0538666309       -0.0441826598
 O          3.3135948375       -3.2626928635       -0.3084979295
 O          0.8087543957        0.5860380744        0.7404620282
 C          0.6693927206       -2.2298621187        0.2010485066
 C         -0.3241928808       -1.6533559258       -0.7785256250
 C          0.1230254628       -1.1952988705       -2.0148442906
 C         -0.7558263293       -0.6512638129       -2.9318247383
 C         -2.1070851101       -0.5650133720       -2.6447949560
 C         -2.5673684395       -1.0333356424       -1.4225154951
 C         -1.6805649030       -1.5761197531       -0.4993799304
 H         -2.0574343536       -1.9325180650        0.4469848003
 N         -3.9473507030       -0.9551794617       -1.1354089496
 S         -4.6174815610        0.5672398208       -0.9320877924
 O         -6.0310209412        0.3479375976       -0.7257929481
 O         -4.2531610239        1.3914045493       -2.0551751952
 C         -3.8856753167        1.1903162041        0.5708063789
 C         -2.5442913377        1.5169986163        0.5715074819
 C         -1.9536226288        1.9210564565        1.7582151588
 C         -2.7135155374        2.0017982310        2.9149323319
 C         -4.0627311820        1.6799702509        2.8961112780
 C         -4.6548284341        1.2599366874        1.7162306228
 H         -5.6965344693        0.9883896159        1.6569414214
 H         -4.6505228456        1.7463985388        3.7976898457
 H         -2.2491037032        2.3154132605        3.8369015479
 H         -0.8972263745        2.1357633452        1.7643633071
 H         -1.9683516743        1.4452461150       -0.3367964417
 H         -4.2278337586       -1.5411641938       -0.3608191232
 H         -2.8037865986       -0.1267565193       -3.3401267697
 H         -0.3871707273       -0.2927906454       -3.8813649296
 H          1.1778599767       -1.2627172573       -2.2456154583
 H          0.9595448274       -3.2292147880       -0.1561914399
 C          0.1198332364       -2.3551878592        1.6081168493
 C         -0.6214676681       -3.5876169789        2.0297120438
 C          0.7613005642       -3.3306000476        2.5468973004
 H          0.8830609419       -3.0485994476        3.5818488453
 H          1.5740797547       -3.9278168442        2.1592144689
 H         -1.4488141582       -3.4838303448        2.7159524501
 H         -0.7490147980       -4.3716499887        1.2983828835
 H         -0.1956801658       -1.4010466390        2.0153044742
