  62
        -98.94014553
 C         -2.6368370319        1.3214429207        0.0159458363
 C         -2.5543253786        0.1806391201        0.8495221056
 C         -3.8148917806       -0.5448840804        1.0645156889
 C         -4.9453079678       -0.0880237380        0.4950027474
 C         -6.2859078460       -0.7557840709        0.5911526303
 C         -6.5015459215       -1.7372464960       -0.5692554363
 C         -5.3337860944       -2.6989917042       -0.7895884307
 H         -5.6102020334       -3.3639861753       -1.6107242216
 H         -4.4592824242       -2.1317217831       -1.1171166651
 C         -4.9595320383       -3.5358530547        0.4416795596
 H         -5.7833062731       -3.5327302643        1.1563745404
 H         -4.8058952593       -4.5705194035        0.1280181241
 C         -3.6765497606       -3.0903639626        1.1463456010
 H         -2.8674278971       -3.0009272941        0.4162394231
 H         -3.3893293923       -3.8715091394        1.8554914654
 C         -3.7667611111       -1.7736376533        1.9281933445
 H         -4.6232895063       -1.8051081785        2.6047311230
 H         -2.8564994642       -1.6820974472        2.5281971023
 H         -7.4122217370       -2.3067746381       -0.3753886388
 H         -6.6486649203       -1.1622829620       -1.4864079846
 H         -6.3578387535       -1.2794370591        1.5422920055
 H         -7.0572392460        0.0151255960        0.5510301489
 O         -4.9870020917        1.0235755934       -0.2832658155
 C         -3.8366578167        1.7453304843       -0.5549607635
 O         -4.0083661362        2.7274045585       -1.3050137404
 H          1.2542284680        1.7336765516        0.4160093706
 C          0.9544546112        1.1501331395       -0.4405767704
 C         -0.3437317256        1.2386823622       -0.9140832367
 C         -0.7004447776        0.4711445866       -2.0200681355
 C          0.2167631392       -0.3666355385       -2.6230736209
 C          1.5134629098       -0.4542688718       -2.1454796713
 C          1.8811725356        0.3067403228       -1.0452046288
 N          3.2049346724        0.2703818918       -0.5629208867
 S          3.9957725333       -1.2057591238       -0.3550831589
 O          4.1720109308       -1.8263469691       -1.6435315864
 O          3.3311705055       -2.0067620254        0.6501433522
 C          5.5669305264       -0.6242406909        0.2519953750
 C          6.4465568672       -0.0578242063       -0.6509826314
 C          7.6619383656        0.4222116014       -0.1905478507
 C          7.9757989033        0.3285215649        1.1574462423
 C          7.0833159797       -0.2436465620        2.0511362871
 C          5.8647814061       -0.7243482670        1.5971806384
 H          5.1428888947       -1.1820776227        2.2546645909
 H          7.3309524504       -0.3171228087        3.0979141912
 H          8.9229522767        0.7018523915        1.5136481400
 H          8.3594911583        0.8665603389       -0.8820676796
 H          6.1630632459       -0.0134075457       -1.6893683076
 H          3.2991401104        0.8116178959        0.2870695543
 H          2.2319814524       -1.1134482437       -2.6034416281
 H         -0.0772065105       -0.9603779086       -3.4761097331
 H         -1.7135109931        0.5362718867       -2.3950747768
 C         -1.3875164806        2.1298179226       -0.2851614310
 H         -1.6843587796        2.8824281216       -1.0300582838
 C         -0.9172455072        2.8428974939        0.9653917478
 C         -0.1407363363        4.1201953905        0.8591112581
 C         -1.5603068606        4.1435152447        1.3384151700
 H         -1.7511573307        4.3433494583        2.3821507019
 H         -2.3219082764        4.5266566259        0.6748578178
 H          0.6429432591        4.3102474356        1.5770779396
 H          0.0654305319        4.4978743229       -0.1308666761
 H         -0.6752207208        2.1572720776        1.7697401400
 O         -1.4860297774       -0.2108928271        1.3897786591
