  62
        -98.94227362
 C          1.0888320109        1.2895461446       -0.0126476537
 C          1.5949186314        0.3384794668        0.9011044362
 C          2.5826491940       -0.6207191384        0.3796047596
 C          2.9415664488       -0.5592657059       -0.9162401655
 C          3.8607228762       -1.4426191840       -1.7337685996
 C          4.8543243698       -2.3815785349       -1.0538675033
 C          5.9642809684       -1.6839020343       -0.2691199984
 H          6.5596645313       -2.4509876139        0.2309724114
 H          6.6160974776       -1.1639535002       -0.9755465123
 C          5.4963385667       -0.6642995266        0.7661624435
 H          5.0045094865        0.1701198757        0.2619890456
 H          6.3831995416       -0.2626296675        1.2636139346
 C          4.5643863797       -1.2107801258        1.8461112420
 H          4.4555127100       -0.4343418938        2.6077940327
 H          5.0211549363       -2.0820156548        2.3192319213
 C          3.1502137785       -1.5935793473        1.3727498149
 H          3.1224797254       -2.6053017845        0.9731899835
 H          2.4855560033       -1.5681011946        2.2414963204
 H          5.3268778198       -2.9614981802       -1.8515313732
 H          4.3286596805       -3.0904024607       -0.4206249317
 H          4.4050602458       -0.7671418435       -2.4015795200
 H          3.1995409149       -2.0412592165       -2.3714331800
 O          2.4241409933        0.3776305562       -1.7636884350
 C          1.4865094491        1.3094455363       -1.3480014068
 O          1.1010273440        2.0844273967       -2.2441621484
 O          1.2240649949        0.2786275494        2.1051792506
 C          0.0319592989        2.2694380109        0.4546043736
 C         -1.2706488189        2.0634539816       -0.2826611274
 C         -2.1858533544        3.0903858440       -0.4857470175
 C         -3.3819816598        2.8438072875       -1.1366889825
 C         -3.7018750693        1.5743355746       -1.5835268614
 C         -2.7942579499        0.5403248249       -1.3847048359
 C         -1.5954689677        0.7938088365       -0.7377678192
 H         -0.8890600616       -0.0121280917       -0.6184816086
 N         -3.0669308977       -0.7592084591       -1.8315890358
 S         -2.4416331537       -2.0896765024       -1.0431696762
 O         -1.0308247072       -2.2256058629       -1.3108625866
 O         -3.2753133893       -3.1847098735       -1.4929025296
 C         -2.7330907539       -1.7845002594        0.6896024619
 C         -1.6768138782       -1.5659098025        1.5487025516
 C         -1.9398937979       -1.2775815603        2.8784429157
 C         -3.2501319513       -1.2214703742        3.3261344184
 C         -4.3024721222       -1.4588634292        2.4540376043
 C         -4.0446281983       -1.7386035847        1.1224862871
 H         -4.8355092505       -1.9348465524        0.4170316105
 H         -5.3203423620       -1.4210091778        2.8071544940
 H         -3.4505779495       -0.9932411484        4.3610693367
 H         -1.1124654402       -1.0839589697        3.5425282690
 H         -0.6655428406       -1.6111953338        1.1754064581
 H         -3.9999344368       -0.9151874036       -2.1814256443
 H         -4.6347159140        1.3850741027       -2.0916398500
 H         -4.0794359489        3.6522036842       -1.2946799066
 H         -1.9576847691        4.0855150447       -0.1404679329
 H         -0.1426469088        2.0256151201        1.5143824917
 C          0.5424391458        3.6940603862        0.3628453278
 C          0.1478801699        4.7146394448        1.3873591361
 C          1.5426921833        4.1682990318        1.3733153163
 H          2.3482480950        4.8062669285        1.0420802540
 H          1.8282712173        3.4728766927        2.1491809339
 H         -0.0034476725        5.7342765412        1.0662361912
 H         -0.5077937889        4.3981549606        2.1844340456
 H          0.6752735003        4.0198703591       -0.6627077509
