  62
        -98.93483685
 C          2.2446188831        1.2013371268        0.3884145535
 C          2.5592200189        0.3009385994       -0.6561492154
 C          3.4899106990       -0.7965600688       -0.3225352163
 C          3.9506731929       -0.9243022198        0.9347066677
 C          4.8537797162       -1.9629696940        1.5666494899
 C          5.6995354654       -2.8949775571        0.7023325771
 C          6.8035508075       -2.2030061285       -0.0960674605
 H          7.5589959268       -1.8341428361        0.6021993500
 H          7.2786551465       -2.9490947420       -0.7367975900
 C          6.3548309759       -1.0237647848       -0.9554903268
 H          7.2347879172       -0.6355457679       -1.4755222903
 H          5.9820816067       -0.2230423884       -0.3133764143
 C          5.2976346017       -1.3477721514       -2.0094684668
 H          5.6383528304       -2.1799810217       -2.6283421277
 H          5.1973474372       -0.4706188935       -2.6543136544
 C          3.8974284611       -1.6823918878       -1.4648640892
 H          3.1727913650       -1.5054969980       -2.2651874301
 H          3.8201885343       -2.7300122509       -1.1830388494
 H          5.0635884289       -3.4795777171        0.0439718289
 H          6.1794561145       -3.6005232724        1.3860831173
 H          4.2030562459       -2.5752585565        2.2011654297
 H          5.5113706417       -1.4093644736        2.2443687459
 O          3.5768932974       -0.0605025706        1.9239419229
 C          2.7444272319        1.0145887018        1.6792805830
 O          2.5282358479        1.7296425425        2.6779797194
 O          2.0921481339        0.3801832956       -1.8225910725
 C          1.3438753825        2.4142608040        0.2097824677
 C         -0.1027653828        2.0309628860        0.3864707374
 C         -0.9105920303        2.6799672875        1.3120714929
 C         -2.2305992594        2.2995129605        1.4822214686
 C         -2.7707810083        1.2694227278        0.7332811261
 C         -1.9691411789        0.6094300067       -0.1890751214
 C         -0.6470851729        0.9930770483       -0.3580611985
 H         -0.0261521090        0.4783806774       -1.0769523629
 N         -2.5081360975       -0.4372196119       -0.9599826082
 S         -3.2770446040       -1.6845262295       -0.1380515034
 O         -2.7497332875       -1.8414101707        1.1985777806
 O         -3.1775497919       -2.8353148362       -1.0090627911
 C         -4.9768361633       -1.1577595207       -0.0692637504
 C         -5.6096027179       -0.8469453713       -1.2571222439
 C         -6.9339052888       -0.4406755267       -1.2231796426
 C         -7.6004930393       -0.3564897575       -0.0096595302
 C         -6.9524962559       -0.6761970763        1.1736037685
 C         -5.6269448663       -1.0816196372        1.1468296917
 H         -5.0801481787       -1.3339927063        2.0415201603
 H         -7.4722478381       -0.6109480820        2.1159796614
 H         -8.6312500093       -0.0398581841        0.0139772488
 H         -7.4411370907       -0.1911064172       -2.1411741787
 H         -5.0566911439       -0.9296278995       -2.1778784888
 H         -1.8517374980       -0.8105623754       -1.6316214145
 H         -3.7971512575        0.9673159023        0.8635134618
 H         -2.8459457056        2.8101260552        2.2070949888
 H         -0.4916625129        3.4740711862        1.9127430151
 H          1.6096373918        3.0879497379        1.0395385878
 C          1.6157064165        3.1659633552       -1.0872787593
 C          0.6417610824        3.2584203921       -2.2197272763
 C          0.9025552124        4.4571614732       -1.3615266882
 H          1.4635701294        5.2822117284       -1.7733992205
 H          0.1285728697        4.7494548554       -0.6677856379
 H          1.0416504947        3.2366848458       -3.2221182117
 H         -0.3092594765        2.7595623315       -2.1213572640
 H          2.6646655463        3.1236845000       -1.3628237816
