  62
        -98.93524062
 C         -2.2355721990       -1.0183083703       -0.0443699900
 C         -3.0128453792       -0.4719922999        1.0073786396
 C         -3.9326374391        0.6318488900        0.6746539890
 C         -3.9651529289        1.0811933094       -0.5932262712
 C         -4.8484698587        2.1503144492       -1.1776657718
 C         -6.2868253387        1.6593301991       -1.4170341319
 C         -6.8719132389        0.8028750696       -0.2964332217
 H         -7.8323289688        0.4129519994       -0.6438414618
 H         -6.2189953890       -0.0544515904       -0.1220548212
 C         -7.1150311692        1.5320384501        1.0227462379
 H         -7.5835658193        0.8196680304        1.7065846981
 H         -7.8232556192        2.3467303900        0.8552329475
 C         -5.8744626093        2.1058738604        1.7091899180
 H         -6.1696679696        2.4010089308        2.7204724078
 H         -5.5372111392        3.0106502402        1.2105759177
 C         -4.7161300194        1.1250919904        1.8669875486
 H         -3.9761121795        1.5676265107        2.5452906586
 H         -5.0755554995        0.2260182806        2.3802501489
 H         -6.9250516086        2.5280749690       -1.5859845924
 H         -6.2881370085        1.0569810487       -2.3287349317
 H         -4.8366442889        3.0302482795       -0.5411914222
 H         -4.4114649885        2.4298959188       -2.1389136618
 O         -3.1794066886        0.5477302891       -1.5693738908
 C         -2.3041809587       -0.5010607509       -1.3374783502
 O         -1.6695441885       -0.8520125513       -2.3509300499
 O         -2.9573070894       -0.9055351594        2.1900590098
 C         -1.3346992990       -2.1886674302        0.3111471207
 C          0.0714666109       -1.7331208401        0.6054731508
 C          0.6982578406       -2.0713333196        1.7988901810
 C          1.9877465906       -1.6428218795        2.0624100111
 C          2.6789876808       -0.8755727499        1.1419654010
 C          2.0582403110       -0.5239629503       -0.0497115293
 C          0.7640316511       -0.9516526804       -0.3094776594
 H          0.2850105513       -0.6763191008       -1.2378558196
 N          2.7527076312        0.2420968593       -1.0018661395
 S          3.5334404111        1.6359931695       -0.4876519999
 O          2.8861934409        2.2100998600        0.6700110898
 O          3.6209518214        2.4785080690       -1.6602493502
 C          5.1661329010        1.0673587697       -0.0599688193
 C          5.6836064108        1.3292757902        1.1934677007
 C          6.9585149307        0.8784924303        1.4994374212
 C          7.6892396509        0.1786884999        0.5515603016
 C          7.1563114912       -0.0730393806       -0.7040567084
 C          5.8832118912        0.3757674193       -1.0167071389
 H          5.4336293914        0.2041991889       -1.9805125889
 H          7.7273195713       -0.6174792309       -1.4387822581
 H          8.6800679009       -0.1726370900        0.7926502820
 H          7.3747238005        1.0739007107        2.4746440812
 H          5.0761058506        1.8719688704        1.9003007904
 H          2.2158115214        0.4193020289       -1.8390383396
 H          3.6834195407       -0.5399517898        1.3412488511
 H          2.4616872804       -1.9109019391        2.9941980313
 H          0.1614953705       -2.6602540393        2.5281192712
 H         -1.7549515292       -2.5806716698        1.2508537607
 C         -1.3955401988       -3.3134966706       -0.7146245989
 C         -0.2549679386       -3.6981039310       -1.6039302585
 C         -0.6486951289       -4.5912486605       -0.4684378682
 H         -1.1377150188       -5.5282043906       -0.6873746480
 H          0.0065066509       -4.6217917602        0.3890779819
 H         -0.4913906784       -3.9998237714       -2.6129848984
 H          0.6684349313       -3.1471982809       -1.5222650385
 H         -2.3871340987       -3.4066435708       -1.1468810491
