  62
        -98.93013898
 C         -1.3022388389       -1.6870461437        0.1054977733
 C         -2.3930824678       -1.2278705010        0.8781819408
 C         -3.1785261464       -0.1220075240        0.3092554144
 C         -2.8221902814        0.3927699958       -0.8803477008
 C         -3.4990518981        1.4998023444       -1.6475115468
 C         -3.8926121434        2.7618210276       -0.8621159712
 C         -3.0206938739        3.0773547082        0.3628070515
 H         -2.1155930703        2.4678311792        0.3494643555
 H         -2.7123916866        4.1237802589        0.3182965281
 C         -3.7549212569        2.8653231732        1.6896111863
 H         -3.2557608206        3.4507379903        2.4658484628
 H         -4.7718382190        3.2522585735        1.5944312639
 C         -3.8153079458        1.4195455590        2.1815751947
 H         -4.4727802957        1.3867996396        3.0538503012
 H         -2.8250417731        1.0997945331        2.5178616898
 C         -4.3107028170        0.3917843071        1.1515730395
 H         -5.1103020515        0.8037279977        0.5403099338
 H         -4.6988980377       -0.4709790962        1.7000246069
 H         -4.9299948986        2.6789346930       -0.5401293836
 H         -3.8499366138        3.5979398099       -1.5618947918
 H         -2.7992155591        1.7627891927       -2.4427444503
 H         -4.3911137390        1.0859437056       -2.1258243527
 O         -1.7617843197       -0.0787659549       -1.5910515081
 C         -0.9731505260       -1.1217345140       -1.1273572260
 O         -0.0390275970       -1.4319193880       -1.8842984482
 O         -2.6964257822       -1.7202424171        1.9998516220
 C         -0.4368629076       -2.8114619871        0.6634955903
 C          1.0042116728       -2.3702913627        0.5754141455
 C          2.0549299987       -2.9875927360       -0.0881718095
 C          3.3166952711       -2.4128703676       -0.1068299620
 C          3.5684824696       -1.2090269841        0.5204294086
 C          2.5254815789       -0.5742561198        1.1835877185
 C          1.2744385749       -1.1628713174        1.2194547581
 H          0.4696017113       -0.6596618353        1.7427558456
 N          2.7470289786        0.6722170432        1.8077629729
 S          3.2561801968        1.9284797267        0.8215322133
 O          4.6041395476        1.6604021524        0.3886760712
 O          3.0649848936        3.1261319190        1.6085165587
 C          2.1554912454        1.9351666187       -0.5811654462
 C          2.4341721533        1.1247771295       -1.6633122807
 C          1.5578064339        1.1153133624       -2.7358426687
 C          0.4295768723        1.9190710138       -2.7121133720
 C          0.1646798405        2.7302301108       -1.6198904629
 C          1.0295697153        2.7329762398       -0.5378196054
 H          0.8608727870        3.3512634856        0.3299538739
 H         -0.7136125757        3.3557153585       -1.6054712290
 H         -0.2489893453        1.9063676629       -3.5505229651
 H          1.7513817314        0.4733754527       -3.5793737070
 H          3.3261102838        0.5203926300       -1.6530079679
 H          1.9572881997        0.9832145723        2.3561346328
 H          4.5392071572       -0.7411306663        0.4915015421
 H          4.1156494189       -2.9135267765       -0.6328305230
 H          1.9124853003       -3.9086864291       -0.6221348070
 H         -0.6891986281       -2.8495482776        1.7373036006
 C         -0.9252612064       -4.1307538717        0.0864687750
 C         -0.5244990185       -4.6995656682       -1.2381041384
 C         -0.1438291574       -5.4083633321        0.0295639214
 H         -0.6673487797       -6.3224669954        0.2691266777
 H          0.8834852279       -5.4055267265        0.3540520956
 H         -1.2998610646       -5.1363216588       -1.8513357101
 H          0.2210470241       -4.1713851550       -1.8096409729
 H         -1.9777066923       -4.2439969478        0.3396919445
