  62
        -98.94305791
 C         -1.4755064596       -1.1196751002       -0.0401587393
 C         -2.4927966897       -0.6349783398        0.8113634204
 C         -2.9638684696        0.7351462501        0.5537622197
 C         -2.4001852495        1.4509325796       -0.4346943405
 C         -2.6699683494        2.8813122995       -0.8307852412
 C         -4.1308248394        3.3494925295       -0.8637196915
 C         -5.1449904494        2.2751521194       -1.2829160411
 H         -5.7736043693        2.6733242591       -2.0814038113
 H         -4.6219196394        1.4043597792       -1.6815809407
 C         -6.0606735595        1.8392088399       -0.1368510710
 H         -6.3768075295        2.7265433202        0.4157652086
 H         -6.9574379795        1.3795375498       -0.5590260509
 C         -5.4536906296        0.8325290103        0.8395422695
 H         -6.1595269797        0.6935401207        1.6619200995
 H         -5.3387528596       -0.1373267099        0.3480393999
 C         -4.0861071197        1.2198522805        1.4263985594
 H         -3.9694028998        0.6999850009        2.3815837597
 H         -4.0208464396        2.2901712106        1.6079048490
 H         -4.4099080894        3.7410781000        0.1134605883
 H         -4.1765931493        4.1871138992       -1.5618478819
 H         -2.2288988693        2.9878748290       -1.8250229112
 H         -2.0966201594        3.5253803197       -0.1567334814
 O         -1.4212209595        0.9434095092       -1.2338113502
 C         -0.9250903695       -0.3337760807       -1.0498440996
 O         -0.0160875895       -0.6522780711       -1.8419948094
 O         -2.9758046598       -1.3126159494        1.7600750606
 C         -0.9024968897       -2.5053218301        0.1924240913
 C          0.5912827803       -2.4147145301        0.3870947314
 C          1.4908163503       -3.3221918104       -0.1585228781
 C          2.8528488603       -3.1628205904        0.0321744519
 C          3.3471506903       -2.0877498101        0.7477407415
 C          2.4542208502       -1.1819827298        1.3081616010
 C          1.0913261403       -1.3680868398        1.1517055210
 H          0.4129383602       -0.6542078596        1.5961450206
 N          2.8998171702       -0.0524399595        2.0283652406
 S          2.5545697804        1.4471853702        1.3598837699
 O          3.1625389003        2.4059766906        2.2584291495
 O          1.1363115304        1.5808500302        1.1500877297
 C          3.4426546405        1.4494833795       -0.1876509600
 C          4.6899279505        2.0441385594       -0.2273422602
 C          5.4231111806        1.9914603889       -1.4011622001
 C          4.9032005607        1.3375167184       -2.5084070499
 C          3.6526233006        0.7427742985       -2.4500829197
 C          2.9096587705        0.7947551990       -1.2797538398
 H          1.9312818105        0.3427203291       -1.2200792297
 H          3.2394534207        0.2328544781       -3.3055938295
 H          5.4739048907        1.2916773080       -3.4225396598
 H          6.3947157406        2.4562572888       -1.4482387002
 H          5.0499039105        2.5432563598        0.6579270996
 H          3.8831997102       -0.0850466094        2.2629894707
 H          4.4103133603       -1.9463523201        0.8714533915
 H          3.5390526203       -3.8745923406       -0.4005085077
 H          1.1252848403       -4.1516170506       -0.7416669178
 H         -1.3567578998       -2.8593612997        1.1303403115
 C         -1.3061885597       -3.4408693406       -0.9290250283
 C         -1.5076641397       -4.9025273205       -0.6645038477
 C         -2.6888467597       -4.0183826106       -0.9247459981
 H         -3.2113791596       -4.1139061110       -1.8647410581
 H         -3.3290566797       -3.7585057202       -0.0942393883
 H         -1.2218263397       -5.6092301208       -1.4289424573
 H         -1.3531037698       -5.2543261101        0.3442839625
 H         -0.8909048696       -3.1431832711       -1.8855823784
