  62
        -98.93312874
 C         -2.4000023455       -1.0622622615        0.3430302698
 C         -2.6260052941        0.1638375905        1.0167506755
 C         -3.8903093771        0.8719686423        0.7396939927
 C         -4.7641023431        0.3158629668       -0.1196869638
 C         -6.0892047518        0.8551965666       -0.5893529635
 C         -5.9380555487        1.9864912803       -1.6183967201
 C         -4.8836761970        3.0337138006       -1.2704033053
 H         -4.8045249721        3.7193519042       -2.1181756455
 H         -3.9142654093        2.5441409751       -1.1592529523
 C         -5.1787084131        3.8648198597       -0.0239556825
 H         -6.1379493699        4.3718014513       -0.1495621027
 H         -4.4035781349        4.6324506315        0.0440269609
 C         -5.2025788626        3.0993963213        1.3011377383
 H         -6.1361319817        2.5577000225        1.4270661831
 H         -5.1627559421        3.8399055457        2.1053490817
 C         -4.0192500420        2.1607701569        1.5154760398
 H         -3.9905163459        1.8698850894        2.5727119698
 H         -3.0864550965        2.7113016611        1.3462552467
 H         -6.9081505247        2.4705401117       -1.7428911723
 H         -5.6584062148        1.5380246499       -2.5747426014
 H         -6.6820557901        1.1812899054        0.2599486331
 H         -6.6145838164        0.0228026544       -1.0625398605
 O         -4.5122195452       -0.8724465919       -0.7355176016
 C         -3.3461846761       -1.5886653857       -0.5359941102
 O         -3.2991280962       -2.6513315045       -1.1855809406
 O         -1.8001044621        0.6591747144        1.8324575746
 C         -1.0879950074       -1.7728099498        0.6273377950
 C         -0.0927732320       -1.5544261768       -0.4878142886
 C         -0.2390708350       -2.1648476729       -1.7296241169
 C          0.7019366393       -1.9621987005       -2.7222187803
 C          1.8106401451       -1.1664288785       -2.4940991569
 C          1.9591065887       -0.5414520311       -1.2614341335
 C          1.0052013733       -0.7337358291       -0.2716673354
 H          1.1287916619       -0.2354519722        0.6793342981
 N          3.0594524304        0.2936380188       -1.0104972678
 S          3.7093680919        0.3212490424        0.5477824435
 O          3.7737275851       -1.0211826211        1.0803276392
 O          2.9901140107        1.2894271915        1.3367661390
 C          5.3507260807        0.9268102570        0.2018395258
 C          5.5394662247        2.2874691098        0.0487754939
 C          6.8079428822        2.7579060029       -0.2514107966
 C          7.8603846245        1.8654996626       -0.3931552895
 C          7.6561321719        0.5031093063       -0.2340764949
 C          6.3896380425        0.0256256191        0.0647332659
 H          6.1850350656       -1.0235033535        0.2057314461
 H          8.4768917457       -0.1876809674       -0.3408597218
 H          8.8466907458        2.2347787813       -0.6256832623
 H          6.9710926857        3.8166382773       -0.3723961770
 H          4.6935216642        2.9424785109        0.1781295777
 H          3.7783491388        0.2200000445       -1.7174066437
 H          2.5511921552       -1.0220829623       -3.2661755714
 H          0.5767652103       -2.4406924774       -3.6818958186
 H         -1.1041941693       -2.7826479384       -1.9124172687
 H         -0.6854516385       -1.2810898784        1.5241483650
 C         -1.2527136659       -3.2502567790        0.9267017543
 C         -0.1268468010       -3.9751977747        1.5991113029
 C         -1.3954024611       -3.6994983437        2.3481413642
 H         -2.0577804602       -4.5245954820        2.5629893384
 H         -1.3788729942       -2.9404344794        3.1170002456
 H          0.0833723397       -4.9906828174        1.3004791816
 H          0.7523902416       -3.4015972143        1.8553926410
 H         -1.8217277599       -3.7839371029        0.1769330564
