  62
        -98.94384178
 C         -1.8850147422       -0.6053498399        0.7542707440
 C         -2.2819661809        0.5026089594       -0.0325131592
 C         -3.7270039704        0.7631547661       -0.0770520550
 C         -4.5708543972       -0.0136120161        0.6265685326
 C         -6.0651494666        0.1454515628        0.7054054600
 C         -6.8256462921       -0.5100616476       -0.4553218736
 C         -6.7076375880        0.2103341974       -1.7989441086
 H         -7.4554398670       -0.2267110910       -2.4636487634
 H         -6.9625274933        1.2626583307       -1.6696745050
 C         -5.3284610074        0.0907823077       -2.4623781625
 H         -5.4526596264       -0.1561390706       -3.5192039527
 H         -4.7734838872       -0.7315330270       -2.0050033410
 C         -4.4782148638        1.3594344886       -2.3915649877
 H         -4.9613987701        2.1571362825       -2.9603370679
 H         -3.5118523773        1.1517949755       -2.8586244510
 C         -4.2151765946        1.8657921223       -0.9672149518
 H         -3.4313321195        2.6261703756       -1.0127368472
 H         -5.1177525837        2.3176698876       -0.5560342373
 H         -6.4788166805       -1.5403089737       -0.5627373751
 H         -7.8813039289       -0.5419661350       -0.1761811052
 H         -6.3792906223       -0.3324909278        1.6357963755
 H         -6.3186896857        1.2046887254        0.7559213510
 O         -4.1444189527       -1.0542951618        1.3907247223
 C         -2.8009181614       -1.3864675583        1.4586703936
 O         -2.5510791281       -2.3751118444        2.1778095407
 O         -1.4767284917        1.2397175791       -0.6594761317
 C         -0.4178955064       -0.9823709952        0.8464405983
 C          0.4001690971        0.1891126164        1.3318100513
 C         -0.0588293654        0.9320152248        2.4164607537
 C          0.6585951056        2.0154256045        2.8839057000
 C          1.8530199492        2.3765685205        2.2862928727
 C          2.3322043939        1.6290904904        1.2169228878
 C          1.6116269653        0.5360362382        0.7534196013
 H          1.9915016654       -0.0199168323       -0.0868792407
 N          3.5669160212        1.9434094064        0.6418887939
 S          4.0595568142        1.4295060815       -0.8619977675
 O          5.2582746801        2.2012788179       -1.1164056435
 O          3.0222600012        1.5358384429       -1.8605037013
 C          4.5116479749       -0.2769662626       -0.6216444139
 C          5.0659866243       -0.6700103118        0.5803093017
 C          5.4476611429       -1.9924809590        0.7406012872
 C          5.2794003566       -2.8937705366       -0.2993210602
 C          4.7287420595       -2.4823265516       -1.5028783036
 C          4.3396307010       -1.1620500993       -1.6673363355
 H          3.8959130799       -0.8019537991       -2.5823668684
 H          4.5995275765       -3.1839794997       -2.3116812485
 H          5.5774319885       -3.9224313833       -0.1720027595
 H          5.8750974006       -2.3159941276        1.6760119161
 H          5.1834466705        0.0534500032        1.3695153372
 H          3.9845622201        2.8157566407        0.9256673188
 H          2.4097277695        3.2293244571        2.6433493889
 H          0.2829041993        2.5890175067        3.7179952747
 H         -0.9963506321        0.6551485199        2.8797430786
 H         -0.3565257362       -1.7791809794        1.6026531063
 C          0.0557741612       -1.5366507416       -0.4817034349
 C          1.1192283235       -2.5911859381       -0.5260744261
 C         -0.3017126988       -2.9460232574       -0.8431068659
 H         -0.5653325560       -3.1651329908       -1.8669885937
 H         -0.8645001561       -3.5133643078       -0.1158848185
 H          1.8346071435       -2.5659724926       -1.3339850145
 H          1.5290164540       -2.9286023718        0.4138127125
 H          0.0359678632       -0.7949512449       -1.2732517473
