  62
        -98.94244184
 C         -2.1077614413       -0.3791386322        0.4903349227
 C         -1.4352369109        0.6399924168        1.2029183091
 C         -1.6640058098        2.0256263462        0.7615305172
 C         -2.4456739468        2.2507460277       -0.3083441098
 C         -2.8975667843        3.5595755619       -0.9110296047
 C         -1.9151389212        4.7331753495       -0.9356931122
 C         -0.4665899688        4.3518055949       -1.2722621544
 H         -0.4176810969        3.3166591985       -1.6179317982
 H         -0.1105321462        4.9838941079       -2.0881897472
 C          0.4872542421        4.5205913745       -0.0887207346
 H          1.5093116098        4.5821985032       -0.4708148411
 H          0.2655616730        5.4606597707        0.4219820897
 C          0.4506584834        3.3712250648        0.9147614506
 H          0.7968664963        2.4625981482        0.4148306208
 H          1.1590736373        3.5951260294        1.7163614634
 C         -0.9286521310        3.0835934721        1.5346758049
 H         -1.5149392518        3.9946550357        1.6288504748
 H         -0.7731000157        2.6687652866        2.5344597422
 H         -2.2898424154        5.4356662916       -1.6826763128
 H         -1.9375749063        5.2517542432        0.0215026255
 H         -3.1906082312        3.3118479184       -1.9347616275
 H         -3.8069309093        3.8686896934       -0.3853190705
 O         -3.0219469152        1.2317666334       -1.0087516877
 C         -2.8531767621       -0.0957962462       -0.6521935890
 O         -3.4180544579       -0.9027358214       -1.4161210166
 O         -0.6835301358        0.4045340080        2.1884229673
 C         -1.8960224685       -1.8284375762        0.9025213926
 C         -1.0376383540       -2.4776333645       -0.1551593042
 C         -1.4353145587       -3.5441114707       -0.9483007660
 C         -0.6087458426       -3.9977590090       -1.9632416266
 C          0.6055795918       -3.3889300987       -2.2202287241
 C          1.0186494780       -2.3275311064       -1.4196441761
 C          0.2123000867       -1.9116213513       -0.3758763995
 H          0.5301948524       -1.0920327906        0.2468999646
 N          2.2417732064       -1.6841401687       -1.6460402214
 S          2.4876697907       -0.0657377499       -1.2782798084
 O          1.2538209101        0.6814950227       -1.2408469463
 O          3.4650423993        0.3712107878       -2.2549527958
 C          3.2867305226       -0.1297799575        0.3138567222
 C          2.6188915509        0.1784207332        1.4811374222
 C          3.3026387628        0.0931027619        2.6852595772
 C          4.6316256327       -0.2974203152        2.7053465019
 C          5.2899441367       -0.6040759549        1.5234857462
 C          4.6134671985       -0.5201107676        0.3186633073
 H          5.0893170071       -0.7342235100       -0.6238810432
 H          6.3246782674       -0.9063070986        1.5385021920
 H          5.1557902783       -0.3609756310        3.6459144101
 H          2.7814101406        0.3317336119        3.5986405703
 H          1.5817901344        0.4769720822        1.4600532954
 H          2.7160821001       -1.9529797517       -2.4947995613
 H          1.2286551156       -3.7243859070       -3.0354397589
 H         -0.9275393385       -4.8247019058       -2.5799005747
 H         -2.3955775409       -4.0060396484       -0.7888109554
 H         -1.3168639581       -1.7858662326        1.8362075104
 C         -3.2047857346       -2.5379877509        1.1657870258
 C         -3.2231421662       -3.7678410096        2.0222742369
 C         -3.8001411305       -2.4855973426        2.5398243338
 H         -4.8724528544       -2.4006908362        2.6323487520
 H         -3.2530689922       -1.9474320444        3.2999736726
 H         -3.9007450905       -4.5668371205        1.7626889263
 H         -2.2827339453       -4.1027105783        2.4328952422
 H         -3.8870370397       -2.4884407458        0.3254453843
