  62
        -98.94614189
 C         -1.9258630727       -1.2851968305        0.2978035644
 C         -1.7098023044        0.0919151903        0.0558056559
 C         -2.8549161002        0.9715175085        0.3214935169
 C         -4.0059666386        0.4505321693        0.7842404360
 C         -5.2534896029        1.2206399275        1.1229310108
 C         -6.1549532881        1.5119727525       -0.0846835053
 C         -5.6274052748        2.5752559470       -1.0488709088
 H         -6.4490605524        2.8355180944       -1.7190961600
 H         -5.3668506853        3.4742943598       -0.4895294797
 C         -4.4267371355        2.1250971410       -1.8929645838
 H         -4.3533610836        1.0352356073       -1.8704469687
 H         -4.5856764261        2.4123409202       -2.9349135933
 C         -3.0872832268        2.7199934520       -1.4583923317
 H         -2.3046279466        2.3054288757       -2.0991452435
 H         -3.1029253197        3.8023596168       -1.6044382109
 C         -2.7102978905        2.4283397816       -0.0000502434
 H         -1.6601942810        2.6951988417        0.1407715103
 H         -3.3194942989        3.0302522449        0.6738049587
 H         -6.3240408297        0.5792882244       -0.6278456193
 H         -7.1189615448        1.8497982966        0.3026208679
 H         -5.8147525148        0.6067486591        1.8306429584
 H         -4.9849506247        2.1573778956        1.6119976948
 O         -4.1645203034       -0.8784515820        1.0256669793
 C         -3.1406429873       -1.7775216027        0.7745264841
 O         -3.4261221480       -2.9664710850        1.0230269976
 O         -0.6193044877        0.5659817306       -0.3546136821
 C         -0.8139875980       -2.2818673806        0.0244803982
 C          0.4237544334       -1.9000323121        0.7985409565
 C          0.3192218656       -1.7046144566        2.1742058749
 C          1.4240213360       -1.3559904795        2.9256969025
 C          2.6573088441       -1.1847968193        2.3199891782
 C          2.7739170451       -1.3825415413        0.9504650220
 C          1.6642462040       -1.7504518297        0.1999034991
 H          1.7880887892       -1.8913626120       -0.8602162919
 N          4.0170570634       -1.2378760751        0.3045311339
 S          4.1690414001       -0.1438956894       -0.9554314117
 O          3.2702906083       -0.4942358765       -2.0231984192
 O          5.5795890455       -0.1539994710       -1.2787928562
 C          3.7408226023        1.4322332867       -0.2369967159
 C          2.4141506150        1.7535520622       -0.0308594406
 C          2.1137709191        2.9551533761        0.5932082479
 C          3.1296184176        3.8067638389        0.9973045189
 C          4.4568990071        3.4671444910        0.7815251307
 C          4.7669576779        2.2670054702        0.1638705378
 H          5.7833302304        1.9623572904       -0.0274684670
 H          5.2471719140        4.1307118318        1.0938741801
 H          2.8847854439        4.7391247276        1.4815142373
 H          1.0787755852        3.2092705992        0.7589017657
 H          1.6297911236        1.0850744150       -0.3494472373
 H          4.7916089486       -1.1129048521        0.9418350332
 H          3.5214251115       -0.9047595173        2.9034115908
 H          1.3249239610       -1.2083739973        3.9904979041
 H         -0.6472002163       -1.8290255941        2.6445203384
 H         -1.1710650234       -3.2500035210        0.4054220971
 C         -0.5820355200       -2.4040764968       -1.4672283890
 C         -0.0430716357       -3.6778468163       -2.0428583051
 C         -1.4750186045       -3.2988422125       -2.2705682968
 H         -1.7746282842       -2.9784366883       -3.2572886256
 H         -2.2408117151       -3.8427799048       -1.7363498968
 H          0.6447516423       -3.6155230265       -2.8729263031
 H          0.1643148648       -4.4869814232       -1.3588249747
 H         -0.2717209438       -1.4704945275       -1.9239869074
