  62
        -98.93664972
 C         -1.7462453504       -1.1422824693       -0.0436560604
 C         -2.2756602900        0.0128637807       -0.6659886607
 C         -3.7419355600        0.1268129409       -0.6618949613
 C         -4.4860053203       -0.8451645090       -0.1043364714
 C         -5.9897599404       -0.9160162588       -0.0615310520
 C         -6.7002445005        0.1729088713        0.7654766377
 C         -7.1517879901        1.3917279913       -0.0486603926
 H         -7.2750986398        1.0924340812       -1.0902134626
 H         -8.1358227602        1.7056007215        0.3055250770
 C         -6.2385488700        2.6192425812        0.0254531476
 H         -6.5306937196        3.3022447512       -0.7752021426
 H         -6.4084650202        3.1337266313        0.9740171275
 C         -4.7386263200        2.3433136210       -0.0828362118
 H         -4.2242227598        3.2971417810       -0.2164096717
 H         -4.3718611704        1.9260532711        0.8580799583
 C         -4.3414854697        1.3838023909       -1.2214558416
 H         -5.2009828595        1.1541953009       -1.8496618019
 H         -3.5719971794        1.8443443607       -1.8446109014
 H         -7.5858679707       -0.2905017985        1.2031191574
 H         -6.0570087308        0.4818869313        1.5889150979
 H         -6.3700815000       -0.8985363889       -1.0853833521
 H         -6.2220187806       -1.8945081788        0.3637045980
 O         -3.9337722007       -1.9459289890        0.4763016189
 C         -2.5608529907       -2.1154220292        0.5346893694
 O         -2.1939845211       -3.1551754792        1.1185294696
 O         -1.5666275897        0.9025051805       -1.2047677106
 C         -0.2431255904       -1.3553641195        0.0075608201
 C          0.4132798995       -0.1794452195        0.6871544802
 C         -0.0475405509        0.1970502706        1.9473070300
 C          0.4972445590        1.2812520206        2.6053377501
 C          1.5233658692        2.0077785605        2.0263151004
 C          1.9962550996        1.6361684903        0.7741609806
 C          1.4494126997        0.5411193803        0.1157155805
 H          1.8229772801        0.2880697702       -0.8620976093
 N          3.0285480999        2.3610176101        0.1657423709
 S          4.1427335302        1.6188322699       -0.8235633286
 O          5.2873576603        2.5052886197       -0.7988574883
 O          3.5827774206        1.3599011298       -2.1259769988
 C          4.5567614797        0.0769210099       -0.0244564783
 C          4.8107077493        0.0681744400        1.3329511218
 C          5.1426375389       -1.1296724300        1.9446053620
 C          5.2212588390       -2.2922936801        1.1931587921
 C          4.9734003095       -2.2657194202       -0.1700647480
 C          4.6372662899       -1.0705366102       -0.7856632182
 H          4.4299490403       -1.0051956003       -1.8414327483
 H          5.0366925796       -3.1692964702       -0.7551384679
 H          5.4778830787       -3.2239082100        1.6723446323
 H          5.3372875385       -1.1533141399        3.0047077821
 H          4.7485485492        0.9854900301        1.8949116017
 H          3.4353144098        3.0945967501        0.7258356810
 H          1.9449209392        2.8625326605        2.5329018605
 H          0.1229881086        1.5646728108        3.5775120500
 H         -0.8518441112       -0.3701090392        2.3964995198
 H         -0.0839729508       -2.2455634095        0.6333602902
 C          0.2851422400       -1.6383774597       -1.3824444497
 C          1.5090509900       -2.4816538399       -1.5674223692
 C          0.1612884500       -3.0279983097       -1.9288879796
 H         -0.0846189196       -3.1518929898       -2.9729151397
 H         -0.2808949603       -3.7741867296       -1.2846832897
 H          2.1878049903       -2.2278135800       -2.3673533890
 H          1.9920283596       -2.8630641598       -0.6806356590
 H          0.1217602704       -0.8154775598       -2.0693938498
