  62
        -98.94592022
 C         -1.1101546603       -1.0707158376       -0.4803528078
 C         -2.1521724965       -1.2698708542        0.4617934597
 C         -2.9150305452       -0.0817476030        0.8616126892
 C         -2.5659856795        1.1173245865        0.3622309623
 C         -3.2714376277        2.4092856903        0.6559182286
 C         -4.3829190018        2.6834387515       -0.3668470969
 C         -5.3186209483        1.4960002704       -0.5925220923
 H         -6.0804867502        1.8132241736       -1.3077199828
 H         -4.7564810944        0.6838826738       -1.0588662150
 C         -5.9984254398        0.9733750498        0.6806303665
 H         -7.0561713355        0.8034262117        0.4690157755
 H         -5.9424521671        1.7268114017        1.4671578802
 C         -5.4317228003       -0.3474267217        1.2049631450
 H         -5.3978874944       -1.0792479312        0.3940185437
 H         -6.1158305285       -0.7330763239        1.9655920987
 C         -4.0381718509       -0.2712661558        1.8420905138
 H         -4.0214494497        0.5138669676        2.6014498011
 H         -3.8445845334       -1.2279635033        2.3364133853
 H         -4.9600789517        3.5449971923       -0.0261273082
 H         -3.9187842275        2.9399700044       -1.3217381074
 H         -3.6878297894        2.3672337900        1.6607391890
 H         -2.5396664475        3.2180367228        0.6129936819
 O         -1.5480371440        1.2788861123       -0.5162302159
 C         -0.7957960573        0.2001729759       -0.9631642828
 O          0.0935742062        0.5256425862       -1.7734131112
 O         -2.4357341782       -2.4013922446        0.9426928902
 C         -0.3074476236       -2.3010688320       -0.8675654922
 C          0.9074785187       -2.4378741445        0.0207401347
 C          1.2127207504       -3.6432245149        0.6420937962
 C          2.3106642536       -3.7452401355        1.4779763941
 C          3.1051552407       -2.6420674039        1.7345697332
 C          2.8067006247       -1.4330148264        1.1176821109
 C          1.7347996688       -1.3473794064        0.2433426244
 H          1.5271165489       -0.4070796460       -0.2401924589
 N          3.5670729722       -0.2784461663        1.3580230574
 S          2.7656224412        1.1877874460        1.5121637445
 O          3.6561766808        1.9959211510        2.3236081235
 O          1.4307955694        1.0139862711        2.0398316850
 C          2.7232669784        1.8857204364       -0.1224219529
 C          1.6923093421        2.7448420305       -0.4412580312
 C          1.6798954248        3.3440632562       -1.6898056945
 C          2.6949613086        3.0740773410       -2.5927400481
 C          3.7245147824        2.2088263758       -2.2566210912
 C          3.7449958800        1.6093546035       -1.0080721370
 H          4.5250271442        0.9256867339       -0.7164021203
 H          4.5086136392        1.9958268992       -2.9655739173
 H          2.6782519456        3.5358176699       -3.5675574749
 H          0.8712696268        4.0062650183       -1.9549078982
 H          0.9095749967        2.9101443587        0.2829597855
 H          4.2932285789       -0.3792585997        2.0527296782
 H          3.9430555164       -2.7111588992        2.4115150156
 H          2.5375687371       -4.6871618377        1.9538659169
 H          0.5725387162       -4.4982197242        0.4829729593
 H         -0.9660911132       -3.1563778104       -0.6617673492
 C          0.1000271803       -2.3482787940       -2.3271870694
 C          0.3773828583       -3.6753586120       -2.9649969149
 C         -0.8531423180       -2.9061089746       -3.3394412239
 H         -0.8996564997       -2.4404670083       -4.3121282120
 H         -1.8074624470       -3.2651091114       -2.9819472517
 H          1.1802300584       -3.7418941164       -3.6826897959
 H          0.2551054337       -4.5598594921       -2.3586555470
 H          0.7088373950       -1.5055532683       -2.6269340468
