  62
        -98.94493229
 C          2.5476014299        0.1658238108        0.4590008899
 C          2.4497859701       -0.5270187893       -0.7713634301
 C          2.2638816405       -1.9809953893       -0.6746547701
 C          2.1945713507       -2.5583397993        0.5383595299
 C          1.9919545611       -4.0260026394        0.7798930799
 C          0.5078031112       -4.3816246898        0.9362133599
 C         -0.3919848089       -3.8267554901       -0.1684592201
 H         -1.3985739788       -4.2081258704        0.0194516099
 H         -0.4491788092       -2.7392739601       -0.0770057301
 C          0.0356995612       -4.2026537300       -1.5937977701
 H          0.6945130014       -5.0717965598       -1.5669394801
 H         -0.8548729388       -4.4870580303       -2.1581405401
 C          0.7130426708       -3.0738829898       -2.3735309101
 H          0.1175507006       -2.1614429700       -2.2820564301
 H          0.7315593209       -3.3527505098       -3.4306912901
 C          2.1543019007       -2.7492410494       -1.9611138501
 H          2.7419386910       -3.6686484792       -1.9151476701
 H          2.5848267306       -2.1022899793       -2.7311205201
 H          0.4200825416       -5.4698784199        0.9670455799
 H          0.1541110011       -3.9837299599        1.8905018899
 H          2.4232860013       -4.5839917893       -0.0492800201
 H          2.5168541812       -4.2947932192        1.6986907999
 O          2.2892253505       -1.8586918993        1.6994658099
 C          2.4427968801       -0.4820294293        1.6878781899
 O          2.4849725700        0.0416278708        2.8221595399
 H          0.1561367197        0.8776619301        0.4790981399
 C          0.2816266695        1.7506363801       -0.1449881701
 C          1.5443940693        2.3111371505       -0.2844451201
 C          1.6825302190        3.4433601705       -1.0770137501
 C          0.5812105488        3.9851228102       -1.7178886701
 C         -0.6709768010        3.4145300498       -1.5873287601
 C         -0.8186977507        2.2770760698       -0.7993189801
 N         -2.0649154705        1.6383535294       -0.6919172001
 S         -2.3697131102        0.5794983993        0.5795284199
 O         -2.1278782504        1.2325813794        1.8485270599
 O         -1.6621442898       -0.6528017905        0.3426380799
 C         -4.1200231201        0.3260722988        0.3548781099
 C         -5.0092740504        1.1482166486        1.0213906399
 C         -6.3688413703        0.9678669982        0.8219418199
 C         -6.8141148700       -0.0254352520       -0.0374309201
 C         -5.9101261198       -0.8445287017       -0.6973088801
 C         -4.5491567298       -0.6693419413       -0.5020022001
 H         -3.8090071397       -1.2859033011       -0.9851912901
 H         -6.2595724296       -1.6184180618       -1.3614768400
 H         -7.8725499700       -0.1643616723       -0.1909263800
 H         -7.0737345005        1.6004349080        1.3368720499
 H         -4.6171374406        1.8981575187        1.6895057199
 H         -2.8501952707        2.2397296992       -0.8965128501
 H         -1.5251629312        3.8345420596       -2.0955934601
 H          0.7013977885        4.8655860802       -2.3307931101
 H          2.6519377488        3.8994364708       -1.1948984801
 C          2.6950256295        1.6756539408        0.4603681399
 H          2.6290752194        1.9875396608        1.5143932099
 C          4.0521568994        2.0745509412       -0.0836777301
 C          4.7498707490        3.2949585114        0.4351890898
 C          5.2530954394        1.9318673015        0.8006989899
 H          6.1777849195        1.5858286618        0.3641237599
 H          5.0840462095        1.5742009115        1.8064033199
 H          5.3348250788        3.8863367616       -0.2530431402
 H          4.2502495689        3.8697536813        1.2005465798
 H          4.1674952794        1.8211507812       -1.1312294201
 O          2.5233196499        0.0387434107       -1.8940093101
