  62
        -98.94496817
 C          1.8520030621        0.3984751928        0.0574791583
 C          2.9280373549        0.5007905827        0.9803266056
 C          4.0798730626       -0.3736365559        0.7417987177
 C          4.0595367863       -1.2314341240       -0.2939331250
 C          5.1423619812       -2.2105802052       -0.6574024089
 C          6.2745817320       -1.6060148569       -1.4990808889
 C          7.2173920772       -0.6686799767       -0.7434244115
 H          7.5802372198       -1.1679106544        0.1555985541
 H          8.0801884127       -0.4938168915       -1.3892653975
 C          6.5985917292        0.6854202329       -0.3691761969
 H          7.2992601188        1.4862974244       -0.6157574616
 H          5.6992058569        0.8522834134       -0.9663833224
 C          6.2441233325        0.8335170418        1.1105356104
 H          5.7811595877        1.8128467652        1.2555223452
 H          7.1558474753        0.8000963271        1.7110576453
 C          5.2733494456       -0.2315465126        1.6372676363
 H          5.7851906905       -1.1879393120        1.7429681349
 H          4.9159531857        0.0850765110        2.6201264526
 H          6.8634415762       -2.4360050843       -1.8964736239
 H          5.8348236024       -1.0752746863       -2.3466868085
 H          5.5571084857       -2.6509063739        0.2499007019
 H          4.6642070312       -3.0010877323       -1.2400465185
 O          3.0037685328       -1.3184785126       -1.1425624757
 C          1.8877982214       -0.5043302976       -1.0049970271
 O          1.0268678366       -0.7027020243       -1.8873242161
 H         -0.7981136486       -0.7358497590       -0.6704688292
 C         -1.1403572643       -0.4222545865        0.3044660706
 C         -0.4809111114        0.6094123136        0.9577349975
 C         -0.9283131297        0.9907168415        2.2169903400
 C         -2.0079978774        0.3549448646        2.8059422098
 C         -2.6630606767       -0.6722846633        2.1511662343
 C         -2.2172270247       -1.0649230621        0.8958194644
 N         -2.8900123072       -2.1002383172        0.2118962603
 S         -4.5139452819       -1.8041114942       -0.0867156965
 O         -5.2700987726       -2.0608966581        1.1133971809
 O         -4.8571373510       -2.6103022538       -1.2365838100
 C         -4.5762771876       -0.0667444076       -0.4856368711
 C         -5.0763641198        0.8331240366        0.4331050772
 C         -5.0404165777        2.1852815353        0.1325757508
 C         -4.5028035996        2.6113987603       -1.0716944461
 C         -4.0053589460        1.6942356692       -1.9847630130
 C         -4.0373358617        0.3415076058       -1.6894530635
 H         -3.6609424887       -0.3992778900       -2.3771502099
 H         -3.5884025572        2.0258941715       -2.9224088955
 H         -4.4716991198        3.6648688682       -1.3014551601
 H         -5.4265544047        2.9014739641        0.8396457000
 H         -5.4846065166        0.4587275001        1.3573155850
 H         -2.4247181389       -2.3628156365       -0.6459322804
 H         -3.5106785603       -1.1756689183        2.5875588925
 H         -2.3435850588        0.6627932492        3.7843663780
 H         -0.4163964089        1.7856263795        2.7392026497
 C          0.6706977599        1.3248775313        0.2931089638
 H          1.0418007875        2.0821912095        0.9964346296
 C          0.1942577374        2.0286897796       -0.9637370565
 C         -0.6151644874        3.2820257793       -0.8290017746
 C          0.7926239236        3.3497069604       -1.3386674483
 H          0.9567641060        3.5617817435       -2.3845559291
 H          1.5530490586        3.7568544012       -0.6881384456
 H         -1.4233070315        3.4479486602       -1.5237168805
 H         -0.8109119673        3.6444200752        0.1684644809
 H         -0.0558230622        1.3498727489       -1.7683298191
 O          2.9236616445        1.2935467995        1.9588329874
