  62
        -98.93746324
 C         -2.2873213180        0.3641783306        0.4083511190
 C         -3.5213987134        0.6318720895        1.0548525786
 C         -4.7136762719        0.6272023281        0.2007288445
 C         -4.5817794795        0.4348087311       -1.1238900344
 C         -5.6987006137        0.4212711366       -2.1319826811
 C         -6.4142339337       -0.9314204684       -2.2515716971
 C         -7.3191345763       -1.2961891777       -1.0739327059
 H         -8.0051400191       -0.4722429271       -0.8753048067
 H         -7.9200201932       -2.1528491156       -1.3854681349
 C         -6.5671919369       -1.6638780709        0.2129873792
 H         -5.5247130672       -1.8880587100       -0.0258064315
 H         -6.9982535472       -2.5719201060        0.6406243274
 C         -6.6065596023       -0.5887455774        1.2992387549
 H         -6.0123572003       -0.9369064111        2.1482580084
 H         -7.6344301702       -0.4517094686        1.6420847940
 C         -6.0521879130        0.7726122362        0.8593212751
 H         -6.7550182094        1.2667404631        0.1890835653
 H         -5.9187558905        1.3929630695        1.7489102677
 H         -7.0269670437       -0.8964217490       -3.1552862116
 H         -5.6631410265       -1.7126993690       -2.3897163879
 H         -6.4237786410        1.1974255791       -1.8855864280
 H         -5.2478592789        0.6591795698       -3.0977523239
 O         -3.3734369074        0.2485632585       -1.7169317144
 C         -2.1993041779        0.1911099510       -0.9737193298
 O         -1.1813000355       -0.0039087440       -1.6630713233
 O         -3.6197493814        0.8706579262        2.2879128100
 C         -1.0409519256        0.3243004841        1.2726067075
 C          0.0741253858        1.1209020857        0.6450612194
 C         -0.1078478612        2.4886335649        0.4526578862
 C          0.8881835853        3.2623552529       -0.1092379099
 C          2.0972127510        2.6940163589       -0.4710219312
 C          2.2863983933        1.3299786446       -0.2890770177
 C          1.2770064927        0.5520630637        0.2613647677
 H          1.4461908082       -0.5062863990        0.3694383135
 N          3.4914095726        0.7158099865       -0.6650552652
 S          4.0704310275       -0.5535472217        0.2831494622
 O          3.4877073356       -1.7909362914       -0.1711695772
 O          3.8952048219       -0.2433246714        1.6846508085
 C          5.8022599980       -0.5135371615       -0.1431734839
 C          6.6828382775        0.1751520454        0.6698023394
 C          8.0220013645        0.2263188020        0.3161402426
 C          8.4551815508       -0.4058221421       -0.8396865492
 C          7.5597565495       -1.0935633460       -1.6454336677
 C          6.2195161052       -1.1494893180       -1.2972503969
 H          5.4888282370       -1.6785296289       -1.8868216443
 H          7.9005760108       -1.5861935667       -2.5417399639
 H          9.4977614593       -0.3650242865       -1.1128300950
 H          8.7209349193        0.7571934517        0.9421845630
 H          6.3021645231        0.6428870204        1.5635388698
 H          4.2184584050        1.3773545062       -0.8996372178
 H          2.8806712530        3.2986610801       -0.9022293731
 H          0.7286127523        4.3200344846       -0.2567892653
 H         -1.0491986270        2.9346002700        0.7452263303
 H         -1.3376119030        0.8401816421        2.2023609464
 C         -0.6125175220       -1.0781847607        1.6776055200
 C         -1.6159095395       -2.1783298238        1.8464161645
 C         -0.6295589726       -2.2302828131        0.7202601953
 H          0.1795351377       -2.9451931034        0.7693708523
 H         -0.9772865211       -2.0408433230       -0.2833765515
 H         -1.4937950295       -2.8626615955        2.6724243878
 H         -2.6464469397       -1.9544581185        1.6114429166
 H          0.2053935075       -1.0589496556        2.3931942297
