  62
        -98.94823887
 C          1.1884874076        1.2206674634       -0.0239171992
 C          1.9027409927        0.6360142803        1.0487518382
 C          2.5339322674       -0.6611416352        0.7706407450
 C          2.3915095796       -1.2144830726       -0.4475449415
 C          3.0173430343       -2.5081067471       -0.8802302773
 C          4.3947698340       -2.2746058967       -1.5165150808
 C          5.3144247098       -1.3796099103       -0.6860394048
 H          6.2668782411       -1.3104090352       -1.2157804895
 H          4.8933926946       -0.3723787668       -0.6478965992
 C          5.5612419891       -1.8777012910        0.7448542043
 H          6.6268121397       -1.7914277815        0.9675765072
 H          5.2989818726       -2.9335838703        0.8210997323
 C          4.8166557859       -1.0932477870        1.8270235716
 H          5.0025787587       -0.0238029249        1.6988136904
 H          5.2252801629       -1.3815488873        2.7992869406
 C          3.2995105444       -1.3134674155        1.8866668986
 H          3.0820161284       -2.3832031732        1.9294030576
 H          2.9307674229       -0.8561495950        2.8100202997
 H          4.2506989646       -1.8051710976       -2.4921498443
 H          4.8713677095       -3.2440596029       -1.6720767033
 H          2.3625465657       -2.9809819509       -1.6141006004
 H          3.1092327081       -3.1656101045       -0.0177736980
 O          1.6880196152       -0.6289062320       -1.4493660290
 C          1.0593229809        0.5965829415       -1.2639298503
 O          0.4343086234        1.0059093917       -2.2586409027
 O          2.0068880412        1.1739361217        2.1848878748
 C          0.4937228160        2.5525042987        0.1930317120
 C         -0.9965130818        2.3840781323        0.0232367223
 C         -1.7670644967        3.1724111317       -0.8209319073
 C         -3.1307035727        2.9591152840       -0.9256496195
 C         -3.7502745072        1.9617654732       -0.1964284280
 C         -2.9903049469        1.1736176845        0.6616011042
 C         -1.6262433560        1.3921812101        0.7671019752
 H         -1.0451317087        0.7798026877        1.4419089958
 N         -3.6012251782        0.1744228768        1.4406327771
 S         -2.9350796401       -1.3546613297        1.5338667776
 O         -3.9807682714       -2.1617688116        2.1244752772
 O         -1.6823919778       -1.3163072318        2.2437133478
 C         -2.6819022015       -1.8448216496       -0.1595972780
 C         -3.7632179373       -2.3075105037       -0.8844529009
 C         -3.5842594550       -2.6313126761       -2.2191103651
 C         -2.3368046647       -2.4769934743       -2.8056549394
 C         -1.2613259302       -2.0138765791       -2.0640768002
 C         -1.4342649302       -1.6944895903       -0.7269590626
 H         -0.6211545086       -1.3318553543       -0.1169965649
 H         -0.2924508817       -1.8769079510       -2.5177671465
 H         -2.1979585417       -2.7197620042       -3.8473212792
 H         -4.4156284294       -2.9977397929       -2.7994854280
 H         -4.7129863644       -2.4210818245       -0.3873807327
 H         -4.6016753280        0.1111777485        1.3155577219
 H         -4.8133353426        1.7953960606       -0.2809782024
 H         -3.7176127913        3.5754193649       -1.5893737768
 H         -1.3006575106        3.9514005075       -1.4006153690
 H          0.6855600989        2.8122462975        1.2450793349
 C          1.0970302849        3.6232525386       -0.6910529365
 C          1.0365096131        5.0622032263       -0.2766819923
 C          2.3396206704        4.3239298916       -0.2328356296
 H          3.0960868361        4.5646504161       -0.9647106331
 H          2.7395195952        4.0452058357        0.7314846206
 H          0.9008238236        5.8140498609       -1.0392475497
 H          0.5530845898        5.2916872419        0.6608916044
 H          1.0173599324        3.3881080710       -1.7462329004
