  62
        -98.94849525
 C         -1.2442543656       -1.5164593536        0.5014588408
 C         -2.1712625501       -1.1895540268       -0.5172165017
 C         -3.2140601974       -0.2228130278       -0.1464608194
 C         -3.2347853721        0.2835370438        1.0996643789
 C         -4.2128465870        1.3091958161        1.5933323226
 C         -3.6691855671        2.7329674055        1.4121738411
 C         -3.1227043378        3.0191793161        0.0129850708
 H         -2.8165780285        4.0680698241       -0.0044148537
 H         -2.2143437882        2.4317668629       -0.1460960794
 C         -4.1179702211        2.7592940200       -1.1266097647
 H         -5.1347682165        2.7404951242       -0.7316795422
 H         -4.0590739924        3.5900886606       -1.8330950085
 C         -3.8587739337        1.4796324068       -1.9241802930
 H         -2.8073672435        1.4446004147       -2.2228514197
 H         -4.4585705979        1.5214866551       -2.8375178377
 C         -4.2012051590        0.1660441940       -1.2098377657
 H         -5.2125704761        0.2201849262       -0.8019118044
 H         -4.1708596567       -0.6351596793       -1.9541400978
 H         -4.4694665049        3.4390557282        1.6433741838
 H         -2.8580280723        2.8903730377        2.1271159051
 H         -5.1516617884        1.1966740274        1.0544640036
 H         -4.3900812224        1.1317801431        2.6557441047
 O         -2.3312026044       -0.0586122162        2.0529892034
 C         -1.2945941610       -0.9320038999        1.7658430364
 O         -0.4941966445       -1.1090839743        2.7082239383
 H          0.4125676509        0.1322815366       -0.2286770201
 C          0.9521211705       -0.4881457771       -0.9264865761
 C          0.7880209072       -1.8647981789       -0.8851959688
 C          1.4692649794       -2.6381978971       -1.8173517319
 C          2.2783279238       -2.0361985272       -2.7658141784
 C          2.4437131471       -0.6628594617       -2.7965193679
 C          1.7688732834        0.1185292384       -1.8659224454
 N          1.8924261857        1.5159402784       -1.8517919217
 S          1.8689138306        2.3318794488       -0.3922647391
 O          0.5346590872        2.3632520729        0.1510114382
 O          2.4549798781        3.6196125358       -0.6987684106
 C          2.9762117569        1.4047879318        0.6553294302
 C          2.4981282165        0.6173612376        1.6820326149
 C          3.3982222099       -0.1305778106        2.4260513595
 C          4.7518656132       -0.0786037356        2.1350127579
 C          5.2186491825        0.7258479888        1.1058906276
 C          4.3244026256        1.4713969179        0.3567963117
 H          4.6479518877        2.1174874123       -0.4430740379
 H          6.2728141186        0.7704554032        0.8849902423
 H          5.4454398307       -0.6658303174        2.7158662830
 H          3.0236210746       -0.7519576099        3.2240980637
 H          1.4408529898        0.5857003621        1.8956302498
 H          2.5774063230        1.8947485559       -2.4885492625
 H          3.0767180116       -0.1983906284       -3.5366755432
 H          2.7945829828       -2.6473383502       -3.4903583964
 H          1.3597790487       -3.7103263665       -1.8060105113
 C         -0.0875383020       -2.4498100007        0.1987175793
 H          0.5128685393       -2.4983860813        1.1202283178
 C         -0.5914480650       -3.8411295529       -0.1272604689
 C          0.2106333842       -5.0476500949        0.2555416661
 C         -1.0516774318       -4.7221812822        0.9940015232
 H         -1.9200339324       -5.3444589673        0.8384478900
 H         -0.9725918325       -4.3274758388        1.9968661621
 H          0.2075284220       -5.8998740714       -0.4072658461
 H          1.1483127819       -4.8858063347        0.7654915992
 H         -1.1564457612       -3.8708905979       -1.0515143964
 O         -2.1295348049       -1.6752754177       -1.6779516763
