  62
        -98.93751823
 C          2.1568995720        0.9719807386       -0.1397163218
 C          3.0756342861        0.6560510242        0.8949174996
 C          3.9169268518       -0.5285447617        0.6866053129
 C          3.7607321798       -1.2634213646       -0.4287668262
 C          4.4838140832       -2.5367968133       -0.7803058188
 C          6.0035288269       -2.4197415046       -1.0068842410
 C          6.8525165446       -2.7136275233        0.2361481839
 H          6.2770156271       -3.3475235748        0.9118629920
 H          7.7281842893       -3.2916851429       -0.0659191136
 C          7.3668119794       -1.4883558581        0.9977511844
 H          8.2180601743       -1.0655122701        0.4594135962
 H          7.7288041564       -1.8275855744        1.9706514008
 C          6.3550890640       -0.3622909479        1.2109368247
 H          6.7801536643        0.3473249024        1.9234174090
 H          6.2133644205        0.1858041581        0.2765243458
 C          4.9729591796       -0.8250582012        1.7114320656
 H          4.9853929297       -1.8871909843        1.9516094431
 H          4.6974788391       -0.2716412934        2.6112722482
 H          6.2637662563       -3.1478565767       -1.7768104166
 H          6.2367544849       -1.4324124617       -1.4046014508
 H          4.0124329264       -2.8932562991       -1.6986713003
 H          4.2894225784       -3.2753858875        0.0009497187
 O          2.8545822855       -0.9389626303       -1.3897809010
 C          2.0414348659        0.1794579426       -1.2814812788
 O          1.2862205871        0.3377725726       -2.2621395792
 O          3.1851300099        1.3360036018        1.9494508259
 C          1.2755530956        2.1941586879        0.0683816212
 C         -0.1121598436        1.7431101064        0.4555210935
 C         -0.4960604158        1.7267946527        1.7923560947
 C         -1.7450752605        1.2610053966        2.1619690208
 C         -2.6331249325        0.7943005343        1.2089827577
 C         -2.2523831960        0.7909413047       -0.1260981458
 C         -1.0074558829        1.2780754089       -0.4969320104
 H         -0.7127938426        1.2487622060       -1.5347379127
 N         -3.1393779214        0.2947938055       -1.1011898316
 S         -3.7366981921       -1.2587207391       -0.8602958086
 O         -2.8325099022       -2.0604519114       -0.0672900265
 O         -4.0536062258       -1.7576613427       -2.1809612201
 C         -5.2558806298       -0.9888195265        0.0305678416
 C         -5.4515314676       -1.5870210692        1.2599030746
 C         -6.6445351270       -1.3657037580        1.9306230298
 C         -7.6155787603       -0.5552931478        1.3627347446
 C         -7.4048345968        0.0357818514        0.1257428495
 C         -6.2150665482       -0.1822014536       -0.5502308250
 H         -6.0124698258        0.2534331308       -1.5142711537
 H         -8.1625940961        0.6647436565       -0.3129542533
 H         -8.5422597346       -0.3838836475        1.8872711029
 H         -6.8101935635       -1.8251117152        2.8918530047
 H         -4.6656001273       -2.2052939541        1.6639314756
 H         -2.7718455735        0.3766384741       -2.0392691053
 H         -3.6046893673        0.4217599754        1.4899452035
 H         -2.0296518115        1.2578412898        3.2031225172
 H          0.2040953043        2.0658583466        2.5423572630
 H          1.7111372847        2.7150986757        0.9313641844
 C          1.2766878542        3.1397286411       -1.1152321599
 C          0.7896866659        4.5435934497       -0.9212731630
 C          2.2484849321        4.2797147104       -1.1394050808
 H          2.6896510732        4.5590744032       -2.0844968351
 H          2.9179770203        4.3837824982       -0.2981047867
 H          0.2260976405        5.0075607481       -1.7159592267
 H          0.4688277409        4.8261403592        0.0698618295
 H          1.0622422627        2.6560693293       -2.0593417477
