  62
        -98.94320475
 C          1.8963873604        1.3362858201       -0.2177588394
 C          2.2069041208        0.1705968103       -0.9599388596
 C          3.6129810009       -0.2626601893       -0.9129498296
 C          4.5044572307        0.4471673308       -0.1990054694
 C          5.9468058608        0.0770277812       -0.0130454594
 C          6.1384399410       -0.7978577790        1.2339440804
 C          5.1682620713       -1.9763641892        1.3193709002
 H          5.4169119415       -2.5370539893        2.2230502601
 H          4.1522815912       -1.5953486396        1.4476867902
 C          5.2047930517       -2.9186406790        0.1080797801
 H          5.2081967719       -3.9502476891        0.4663514699
 H          6.1282817116       -2.7671239487       -0.4519979999
 C          4.0112770216       -2.7809619292       -0.8390912400
 H          3.0797401116       -2.8417505296       -0.2698611400
 H          4.0257521919       -3.6276837791       -1.5308374701
 C          3.9756531413       -1.5009386891       -1.6833114798
 H          4.9307350013       -1.3710595188       -2.1964215597
 H          3.1932001514       -1.6243117892       -2.4381307898
 H          7.1649168511       -1.1688498687        1.2404822504
 H          5.9963131208       -0.1741142291        2.1193851405
 H          6.2979334410       -0.4506906186       -0.8976025195
 H          6.5252641705        0.9946766813        0.1055921407
 O          4.1732017503        1.5713846606        0.4852125907
 C          2.8686453102        2.0329085802        0.5051613507
 O          2.7025148799        3.0638990301        1.1874040509
 O          1.3714529510       -0.4848201499       -1.6355756097
 C          0.4789427803        1.8859693596       -0.1345502994
 C         -0.3222820195        0.9959668293        0.7849684105
 C         -0.3287921296        1.2733754490        2.1500551205
 C         -1.0014990294        0.4527884887        3.0349020104
 C         -1.6930077591       -0.6539647214        2.5743611202
 C         -1.6877698590       -0.9447859712        1.2152496101
 C         -1.0044738292       -0.1222695109        0.3282573303
 H         -0.9806847090       -0.3920293207       -0.7143996498
 N         -2.3661656686       -2.0757048213        0.7303508799
 S         -3.3804046186       -1.9455614414       -0.5933208601
 O         -4.1760341983       -3.1535725216       -0.5540678503
 O         -2.6249168886       -1.7175110910       -1.7966566900
 C         -4.4055080690       -0.5336633718       -0.2250636799
 C         -4.0080285394        0.7204824784       -0.6421730197
 C         -4.7784453697        1.8172313482       -0.2889560096
 C         -5.9260213397        1.6420463677        0.4686502504
 C         -6.3139479493        0.3745181575        0.8764089501
 C         -5.5450900890       -0.7250550922        0.5320246400
 H         -5.8138534087       -1.7285491723        0.8198694498
 H         -7.2095077593        0.2410984272        1.4615727301
 H         -6.5223429899        2.4987681375        0.7401992705
 H         -4.4760911400        2.8023110483       -0.6067162094
 H         -3.1125003794        0.8184385488       -1.2328328097
 H         -2.8057788685       -2.6313911416        1.4500729398
 H         -2.2214329489       -1.2967651317        3.2621053800
 H         -0.9939149195        0.6788007185        4.0903856604
 H          0.2201123701        2.1327513991        2.5088247607
 H          0.5743879700        2.8668368396        0.3505993008
 C         -0.1472712397        2.0905965597       -1.4976486594
 C         -1.2616440400        3.0815121694       -1.6449480292
 C          0.0933360499        3.3883618799       -2.2069202991
 H          0.2252060600        3.3729592401       -3.2784810691
 H          0.7020269197        4.1257833500       -1.7036253490
 H         -2.0603193599        2.8607993793       -2.3371073593
 H         -1.5737969602        3.6154120491       -0.7600096992
 H         -0.1780333894        1.1955777698       -2.1056639195
