  62
        -98.92804558
 C         -1.7909767221       -1.3387435319       -0.0667319545
 C         -2.0924276627       -0.0609305268       -0.5923993054
 C         -3.5278131498        0.2784882450       -0.7282771020
 C         -4.4524853248       -0.6357518292       -0.3842554672
 C         -5.9524549210       -0.5059731757       -0.4066082541
 C         -6.4905815257        0.3317018883        0.7645212736
 C         -5.7087639399        1.6110494528        1.0507248459
 H         -6.1195204962        2.0546540464        1.9615814160
 H         -4.6671020999        1.3570831421        1.2558655266
 C         -5.7655554495        2.6681476220       -0.0495210849
 H         -6.8070106177        2.9468987730       -0.2253058533
 H         -5.2436333687        3.5530035768        0.3238965901
 C         -5.1353614566        2.2769318240       -1.3880179628
 H         -5.0300265761        3.1926421875       -1.9774129135
 H         -5.7911254784        1.6208321052       -1.9540492571
 C         -3.7410663544        1.6661351892       -1.2837401367
 H         -3.2896353877        1.6555051255       -2.2834279181
 H         -3.1015866562        2.3299098829       -0.6901127349
 H         -7.5344504658        0.5773164354        0.5623509035
 H         -6.4571225866       -0.2865018815        1.6649210417
 H         -6.2786403327       -0.0972090506       -1.3581832886
 H         -6.3549663176       -1.5179450762       -0.3235804393
 O         -4.1115753935       -1.8645996293        0.1002999453
 C         -2.7980511245       -2.2410426954        0.2810083315
 O         -2.6509777978       -3.3889546830        0.7494243878
 H          1.4336789087        0.3108362985       -0.5049951763
 C          1.2251498302        0.1849307547        0.5406176472
 C          0.3753341674       -0.8089749314        1.0015222972
 C          0.1095725610       -0.8586789454        2.3716393101
 C          0.6616756274        0.0554614540        3.2459908590
 C          1.5083154860        1.0448826930        2.7783168312
 C          1.7810260566        1.1093709107        1.4180845401
 N          2.6153436222        2.1164776174        0.9181961949
 S          3.5650084046        1.9250140380       -0.4314153094
 O          4.5568827463        2.9740857870       -0.3096828265
 O          2.7789975769        1.9470313580       -1.6383733452
 C          4.3718965240        0.3407545243       -0.2636303193
 C          4.5923249956       -0.4112906955       -1.3999619621
 C          5.2644048730       -1.6187685479       -1.2894012514
 C          5.6978564894       -2.0555317173       -0.0476867011
 C          5.4684281873       -1.2899096817        1.0852356867
 C          4.8057300983       -0.0775551461        0.9791336603
 H          4.6224120491        0.5356277045        1.8460088300
 H          5.8039414917       -1.6323515058        2.0508718959
 H          6.2158425423       -2.9975689535        0.0380896237
 H          5.4405981296       -2.2138847256       -2.1707829768
 H          4.2225391029       -0.0436072026       -2.3435579579
 H          3.0363614117        2.7228169218        1.6048721044
 H          1.9374764230        1.7694752495        3.4535039781
 H          0.4335004318       -0.0018412731        4.2995068443
 H         -0.5600634696       -1.6232996167        2.7416736368
 C         -0.3587007420       -1.8160623705        0.1514007844
 H         -0.4699136038       -2.7184161528        0.7741582523
 C          0.2363855057       -2.3235321324       -1.1539912552
 C          0.7576325038       -1.4928142866       -2.2859358557
 C          1.7011770631       -2.3225378440       -1.4660954560
 H          2.1282291413       -3.2048103517       -1.9186311212
 H          2.3613782035       -1.8184564652       -0.7784989120
 H          0.5270399068       -1.8282601671       -3.2878600377
 H          0.7610750194       -0.4186691734       -2.1964848877
 H         -0.3119341628       -3.2119242048       -1.4615501942
 O         -1.2242415811        0.7820445442       -0.9330123864
