  62
        -98.94091594
 C         -2.2865328679       -0.5144638339        0.1727125217
 C         -3.5573304466       -1.0335783911        0.5178571090
 C         -4.6476230547       -0.0541208623        0.6116638161
 C         -4.3818420475        1.2470739975        0.3944186115
 C         -5.4062957700        2.3438509796        0.4071830080
 C         -5.9902632558        2.5747672181       -0.9936219864
 C         -6.4508618301        1.2939070032       -1.6895237562
 H         -6.8721618506        1.5822437319       -2.6550324942
 H         -5.5798648658        0.6668911655       -1.8939170669
 C         -7.4871551306        0.4806644486       -0.9013388943
 H         -7.9474799568        1.1084846352       -0.1376558410
 H         -8.2792772785        0.1675363266       -1.5846731890
 C         -6.9346446528       -0.7879828239       -0.2490403141
 H         -6.3901212768       -1.3748740236       -0.9930164036
 H         -7.7804407328       -1.3921977813        0.0894781414
 C         -6.0154888397       -0.5708586050        0.9596325426
 H         -6.5043413850        0.0873870010        1.6805481993
 H         -5.8555634716       -1.5433943760        1.4342081127
 H         -6.8299174423        3.2668335306       -0.9075468688
 H         -5.2239446007        3.0450381768       -1.6142865435
 H         -6.2000579531        2.0842907434        1.1048968690
 H         -4.9221932395        3.2616026231        0.7451841522
 O         -3.1424547522        1.7114709479        0.0889823192
 C         -2.0658916696        0.8459131068       -0.0401656047
 O         -0.9916087771        1.4038446265       -0.3372593189
 H          1.5629049903       -1.0081532906       -0.4902227383
 C          1.2992198844       -0.8750853189        0.5445866858
 C         -0.0048499889       -1.0678404587        0.9714693747
 C         -0.3002294755       -0.8892518279        2.3211290650
 C          0.6808057127       -0.5047150985        3.2131280641
 C          1.9759320891       -0.2851925808        2.7773004933
 C          2.2856391597       -0.4743515190        1.4362268517
 N          3.6102656347       -0.3071273718        0.9865148889
 S          3.9197255142        0.4997285932       -0.4651108097
 O          3.4333305032        1.8606397321       -0.3996488306
 O          3.4548823355       -0.3023548266       -1.5668551176
 C          5.7036220419        0.4885778918       -0.4309141187
 C          6.3613184126       -0.6722773420       -0.7909598034
 C          7.7458163721       -0.7009715323       -0.7416824040
 C          8.4462876580        0.4249347413       -0.3346228552
 C          7.7728138734        1.5834496868        0.0217085131
 C          6.3878105399        1.6182648372       -0.0246728658
 H          5.8224223787        2.4992930153        0.2339072531
 H          8.3197606616        2.4583958420        0.3342470250
 H          9.5239333860        0.4003360278       -0.2978279989
 H          8.2729811651       -1.5989354832       -1.0209104440
 H          5.7752231948       -1.5187410167       -1.1083547574
 H          4.2014794910        0.0832572644        1.7097328980
 H          2.7408202339        0.0284315325        3.4719017902
 H          0.4354939960       -0.3646047923        4.2553252538
 H         -1.3160171548       -1.0480357374        2.6578026611
 C         -1.1164218353       -1.4713856244        0.0351906564
 H         -1.5002625140       -2.4509966173        0.3580014588
 C         -0.6862571158       -1.5720892012       -1.4127420279
 C         -0.0353656359       -2.8225104742       -1.9208061517
 C         -1.4356026638       -2.4853264705       -2.3342985549
 H         -1.6125637349       -2.1615456064       -3.3490623537
 H         -2.2467423341       -3.0588814475       -1.9097749826
 H          0.7563169747       -2.7273413081       -2.6487325308
 H          0.1045282899       -3.6312017191       -1.2195505736
 H         -0.3487987088       -0.6223881660       -1.8156082245
 O         -3.7672372062       -2.2559229882        0.7424163826
