  62
        -98.93675651
 C         -2.4187531610       -1.1410338789        0.1711242162
 C         -2.4993400042        0.0455553561       -0.5989545953
 C         -3.8597534554        0.5035581790       -0.9274687676
 C         -4.9208691599       -0.2009923585       -0.4965312023
 C         -6.3551243134        0.1835510874       -0.7136786147
 C         -6.8799189012        1.0420961297        0.4457845888
 C         -5.9625686997        2.2076888824        0.8158432707
 H         -6.4480524229        2.7597393464        1.6235281267
 H         -5.0258261038        1.8118975903        1.2151021736
 C         -5.6527987092        3.1646660224       -0.3437230463
 H         -5.7480860030        4.1915824998        0.0151476774
 H         -6.3853501913        3.0305827134       -1.1404327499
 C         -4.2437181633        3.0249215127       -0.9230329956
 H         -3.5079550906        3.0643861521       -0.1156148282
 H         -4.0581093070        3.8815469307       -1.5764622092
 C         -3.9837094153        1.7573741701       -1.7468204131
 H         -4.7589716331        1.6462154518       -2.5077131059
 H         -3.0208868717        1.8817061320       -2.2512265036
 H         -7.8653965157        1.4242646566        0.1736599587
 H         -6.9934705274        0.4036051750        1.3249144593
 H         -6.4418382009        0.7280431046       -1.6518215011
 H         -6.9500029158       -0.7291632007       -0.7766964506
 O         -4.8040493145       -1.3323907878        0.2451419904
 C         -3.5597348500       -1.8158028070        0.6132649716
 O         -3.6000271807       -2.8360911631        1.3295857575
 H          1.3935598976       -0.9039185174       -0.3457800780
 C          1.0573630192       -0.3527436795        0.5163701854
 C         -0.1705081142       -0.6234328515        1.0968903510
 C         -0.5735882368        0.1397369181        2.1904442101
 C          0.2300375297        1.1483987320        2.6838160986
 C          1.4642971394        1.4038112468        2.1122110596
 C          1.8739484545        0.6510267072        1.0188906105
 N          3.1093714474        0.8998957400        0.3997124278
 S          3.9717897701       -0.4091881948       -0.2229749270
 O          3.5143488339       -0.6876842049       -1.5608422437
 O          3.9313694392       -1.5156143206        0.7076053514
 C          5.6135922673        0.2859269353       -0.2841813201
 C          6.4990501735        0.0267766378        0.7449334866
 C          7.7622763923        0.5957260489        0.7018835452
 C          8.1157017249        1.4121026301       -0.3619369070
 C          7.2164547914        1.6625140474       -1.3879847467
 C          5.9522591209        1.0960154068       -1.3517808985
 H          5.2235251922        1.2546089446       -2.1296934220
 H          7.4955884834        2.2957420401       -2.2146543806
 H          9.0992367206        1.8536297816       -0.3933676170
 H          8.4647036681        0.4000357837        1.4959819578
 H          6.1833124907       -0.6211406145        1.5467845620
 H          3.7011558545        1.5226454709        0.9320612296
 H          2.0972155218        2.1872025002        2.5009021515
 H         -0.1009425221        1.7352728438        3.5277205434
 H         -1.5347731803       -0.0670746962        2.6429622218
 C         -1.0839319832       -1.7200049985        0.6067652889
 H         -1.3207410687       -2.3648950268        1.4704673089
 C         -0.4270842099       -2.6167408023       -0.4319666070
 C         -1.2457760746       -3.4133261548       -1.4020912847
 C         -0.4070463637       -2.2720118963       -1.8893519436
 H          0.4900324215       -2.4889048490       -2.4517116321
 H         -0.8985121937       -1.3612516327       -2.1929640491
 H         -2.3182713344       -3.2855957080       -1.3744767185
 H         -0.9311473971       -4.4204173174       -1.6308515001
 H          0.4605418131       -3.1054199193       -0.0385087354
 O         -1.5010812459        0.6993499922       -0.9969544050
