  62
        -98.95138529
 C         -1.8174611667       -1.2632350072       -0.2883430395
 C         -2.9117690181       -0.5863279254        0.2972069690
 C         -3.2340511865        0.7229891631       -0.2785009846
 C         -2.5116166272        1.1947466138       -1.3111639623
 C         -2.7038077594        2.5225033750       -1.9912102114
 C         -1.9958353643        3.6777116839       -1.2694292956
 C         -2.6718305100        4.1449318880        0.0203587472
 H         -2.2203292431        5.1019776239        0.2896150235
 H         -3.7320759258        4.3231128780       -0.1655004772
 C         -2.5059321131        3.1775497226        1.2007472313
 H         -1.6740075354        2.4981789096        0.9965395493
 H         -2.2343592666        3.7417482279        2.0967775355
 C         -3.7572739641        2.3663879318        1.5401152155
 H         -4.5438740414        3.0391224223        1.8906587214
 H         -3.5090695152        1.6839659379        2.3574030346
 C         -4.3116710396        1.5323301028        0.3778859956
 H         -5.0521089737        0.8361938828        0.7804548008
 H         -4.7991550644        2.1799526973       -0.3504698050
 H         -0.9704867876        3.3716941541       -1.0445892128
 H         -1.9524096816        4.5222021721       -1.9616069280
 H         -2.2763101054        2.4262583366       -2.9915353068
 H         -3.7675423049        2.7433239172       -2.0852288047
 O         -1.4999147787        0.4904154199       -1.8797808583
 C         -1.0941663323       -0.7223937175       -1.3506106737
 O         -0.1025998638       -1.2248570630       -1.9163657417
 O         -3.5785810050       -1.0503628575        1.2629200929
 C         -1.3366075263       -2.5667447153        0.3219788498
 C          0.1012267573       -2.4163508679        0.7571842068
 C          1.0544589102       -3.4171733378        0.6150233948
 C          2.3664378746       -3.1986462550        1.0003825667
 C          2.7624513932       -1.9737768470        1.5059799723
 C          1.8134356311       -0.9706312428        1.6616204870
 C          0.4930476257       -1.2094936077        1.3226275935
 H         -0.2292662085       -0.4175975424        1.4577704945
 N          2.1569294006        0.3177496571        2.1284846906
 S          2.0217914120        1.5472360913        0.9908561054
 O          2.4936521345        2.7387610005        1.6643107759
 O          0.6801782686        1.5969246703        0.4740084492
 C          3.1932552362        1.0798147536       -0.2705687512
 C          2.8338282975        0.1514491899       -1.2267109221
 C          3.7926655758       -0.2676162902       -2.1376464126
 C          5.0811039313        0.2394522468       -2.0761260880
 C          5.4243196824        1.1725556871       -1.1088198275
 C          4.4745358945        1.5929318827       -0.1927588152
 H          4.6926839356        2.3174857899        0.5753855448
 H          6.4259435457        1.5688621402       -1.0637696334
 H          5.8205846834       -0.0941187079       -2.7869975797
 H          3.5171249043       -0.9925429555       -2.8867492033
 H          1.8240243446       -0.2285282974       -1.2640901249
 H          3.0770227191        0.3642671303        2.5461871916
 H          3.7923477971       -1.7912424839        1.7739293569
 H          3.0951331558       -3.9859335610        0.8825641845
 H          0.7711639050       -4.3677532159        0.1931875537
 H         -1.9593248892       -2.7214169148        1.2162749194
 C         -1.5559027010       -3.7230611882       -0.6315705047
 C         -1.8460939737       -5.0966383842       -0.1061710253
 C         -2.9326285406       -4.3001211867       -0.7616600245
 H         -3.2765511955       -4.5985301924       -1.7405344322
 H         -3.7062577147       -3.8756996052       -0.1384131251
 H         -1.4461610131       -5.9470646414       -0.6375232916
 H         -1.8901388100       -5.2240882205        0.9649179230
 H         -0.9635530923       -3.6320797089       -1.5351569751
