  62
        -98.94515604
 C         -2.2519857415       -0.7650657272       -0.0275029168
 C         -3.2315364051       -0.6516603179        0.9919307268
 C         -4.0836054406        0.5427086043        0.9428605640
 C         -3.8675062466        1.4636983432       -0.0138602554
 C         -4.6859381600        2.7063909712       -0.2085809800
 C         -5.8495867272        2.4594365199       -1.1790406434
 C         -6.6706842458        1.2115561206       -0.8539789416
 H         -6.0463033236        0.3269968344       -0.9989978538
 H         -7.4806623985        1.1564675549       -1.5844798303
 C         -7.2582748938        1.1896858997        0.5640054617
 H         -8.2992815921        0.8650048182        0.5063004892
 H         -7.2559464061        2.1971906034        0.9813699997
 C         -6.5484037419        0.2394090002        1.5301112636
 H         -6.4652808505       -0.7505546126        1.0747729088
 H         -7.1692267606        0.1375544643        2.4241048731
 C         -5.1522378368        0.6765080246        1.9912409969
 H         -4.8509975742        0.0175061855        2.8106649005
 H         -5.1931503299        1.6994352332        2.3709182615
 H         -5.4418074610        2.3486614036       -2.1865390327
 H         -6.4981353986        3.3373348491       -1.1699202824
 H         -5.0668505791        3.0386350926        0.7552111642
 H         -4.0384323544        3.4825869294       -0.6202285246
 O         -2.8955395027        1.3401810248       -0.9524475904
 C         -2.0698108870        0.2255214601       -0.9925522956
 O         -1.2423242867        0.2467211745       -1.9249059291
 H          0.7683298282       -1.2697293682       -1.5969021251
 C          0.9933990449       -1.1950810493       -0.5448787711
 C          0.0338819442       -1.5454236840        0.3920366697
 C          0.3386862519       -1.4041576969        1.7431562776
 C          1.5737329878       -0.9288566322        2.1417188960
 C          2.5266013643       -0.5725654466        1.2027853277
 C          2.2249206177       -0.6918804803       -0.1465699022
 N          3.1786942529       -0.3156018026       -1.1087556697
 S          3.9428476990        1.1676214924       -0.9206963573
 O          3.1215587653        2.1119023086       -0.1985385695
 O          4.3524393122        1.5556942338       -2.2531402673
 C          5.3953465903        0.7666527008        0.0308420912
 C          5.6815676752        1.4710103315        1.1837955865
 C          6.8222522161        1.1468296022        1.9020466350
 C          7.6526896036        0.1301301502        1.4563475992
 C          7.3527028603       -0.5660494848        0.2948161120
 C          6.2148284496       -0.2461170475       -0.4282474183
 H          5.9471867700       -0.7604829525       -1.3359596481
 H          8.0005496271       -1.3564009734       -0.0485368067
 H          8.5387594950       -0.1210275093        2.0176679561
 H          7.0567207500        1.6875499785        2.8049038296
 H          5.0031233329        2.2494511346        1.4953289315
 H          2.8480178562       -0.4216939856       -2.0575339538
 H          3.4866710639       -0.1875853874        1.5054127671
 H          1.7974177833       -0.8294486338        3.1930205767
 H         -0.4139989829       -1.6578045354        2.4764860918
 C         -1.3503089266       -1.9895488711       -0.0106067003
 H         -1.7481021056       -2.6294170613        0.7883620715
 C         -1.3944222438       -2.7568599689       -1.3151625380
 C         -0.8496164164       -4.1522865210       -1.3605782291
 C         -2.3275557127       -3.9215536066       -1.4472478876
 H         -2.8211669077       -4.0800471851       -2.3944386190
 H         -2.9358400433       -4.1739924329       -0.5911198168
 H         -0.4531242555       -4.5599182346       -0.4431518199
 H         -0.3260452688       -4.4732149299       -2.2480304018
 H         -1.2622366499       -2.1311461238       -2.1893160384
 O         -3.3863497352       -1.5125820827        1.8982758072
