  62
        -98.93747627
 C         -1.9689273097       -1.2591046392       -0.1135994013
 C         -2.3728194195       -0.0697493284       -0.7645746499
 C         -3.8171624595        0.2253623618       -0.7418978195
 C         -4.6588711396       -0.6276420588       -0.1341273904
 C         -6.1608442895       -0.5444762987       -0.0248538103
 C         -6.7705191893        0.8242857211        0.3096183514
 C         -5.9085872591        1.7170936199        1.2142547624
 H         -6.5192062790        2.0736525990        2.0458505728
 H         -5.0859208992        1.1389512592        1.6384522616
 C         -5.3479041589        2.9412179106        0.4861179538
 H         -6.1348291489        3.3667563015       -0.1404984257
 H         -5.0757885988        3.6968135497        1.2270113446
 C         -4.1099457690        2.6848278914       -0.3727472666
 H         -3.2472072090        2.4815295305        0.2681474231
 H         -3.8870710789        3.6012690720       -0.9247547256
 C         -4.2281730393        1.5238972526       -1.3737516280
 H         -3.5145950993        1.7051265134       -2.1823606878
 H         -5.2276186193        1.4685406633       -1.7984651580
 H         -7.7289115993        0.6322668006        0.7949086712
 H         -6.9886589693        1.3610563022       -0.6125861980
 H         -6.5908156097       -0.9077155075       -0.9627333107
 H         -6.4289159796       -1.2644546895        0.7519609689
 O         -4.2245839797       -1.7681870096        0.4736815282
 C         -2.8834587298       -2.1053048098        0.5121837177
 O         -2.6360620399       -3.1640423506        1.1242696665
 O         -1.5765216794        0.7103937321       -1.3482052690
 C         -0.5003378997       -1.6477005695       -0.0577520719
 C          0.2566260005       -0.5709310805        0.6803746994
 C         -0.0260357494       -0.3782026021        2.0313638096
 C          0.5986875108        0.6232043370        2.7476888607
 C          1.5233279809        1.4502858776        2.1331240216
 C          1.8113325708        1.2688622891        0.7858768814
 C          1.1843109306        0.2563023300        0.0693593303
 H          1.4062701105        0.1557115212       -0.9788564299
 N          2.7199842409        2.1195231097        0.1395606624
 S          3.8486351208        1.5583607408       -0.9538250684
 O          4.7393178709        2.6801512009       -1.1533811771
 O          3.2046695206        1.0350694923       -2.1304358889
 C          4.7089171306        0.2588342596       -0.0865299099
 C          4.2649144704       -1.0435840202       -0.1933603914
 C          4.9132074302       -2.0319554011        0.5307332174
 C          5.9863656603       -1.7036133722        1.3444707577
 C          6.4212775406       -0.3901946624        1.4396767092
 C          5.7753606807        0.6028022685        0.7216873804
 H          6.0875131709        1.6339664084        0.7571187216
 H          7.2589209506       -0.1384820633        2.0699898595
 H          6.4879554103       -2.4768484830        1.9047088868
 H          4.5767630101       -3.0537051810        0.4552129762
 H          3.4308230803       -1.2640946893       -0.8384258116
 H          3.1185591211        2.8340760389        0.7303932632
 H          2.0060170611        2.2404337668        2.6880002625
 H          0.3665565009        0.7628930458        3.7927520409
 H         -0.7555602395       -1.0211036125        2.5056610289
 H         -0.4572193598       -2.5683677603        0.5412605471
 C          0.0292547502       -1.9467671680       -1.4434623322
 C          1.2081252500       -2.8563870980       -1.6093014034
 C         -0.1601123301       -3.3219872773       -2.0064904538
 H         -0.3883525902       -3.4218549661       -3.0570581239
 H         -0.6557993502       -4.0502626980       -1.3808826546
 H          1.9207479600       -2.6383639272       -2.3912030731
 H          1.6413428100       -3.2780699091       -0.7146522239
 H         -0.0725978198       -1.1133915072       -2.1287702713
