  62
        -98.94325085
 C          2.3762780344        0.4661266420        0.1154846729
 C          3.4324567928        0.3589978022        1.0521008053
 C          4.4331674470       -0.6798354473        0.7765807923
 C          4.2807767736       -1.4690001877       -0.3027938787
 C          5.2511149074       -2.5309185556       -0.7306156003
 C          6.2967170927       -1.9680398151       -1.7036026810
 C          6.9532125211       -0.6733007377       -1.2243588157
 H          7.6929277589       -0.3866193352       -1.9750462911
 H          6.2011509743        0.1185505286       -1.1960206088
 C          7.6318198077       -0.7759191283        0.1487780004
 H          8.6091947142       -0.2919039898        0.0934234476
 H          7.8030678034       -1.8232042200        0.4002179764
 C          6.8648391858       -0.1007934701        1.2873134794
 H          6.6100218412        0.9228084508        1.0011094790
 H          7.5268050563       -0.0422169388        2.1554204402
 C          5.5809559349       -0.8087372593        1.7382252471
 H          5.7936885171       -1.8591454654        1.9469027417
 H          5.2487094563       -0.3343831894        2.6663485642
 H          7.0629439716       -2.7285565882       -1.8645788005
 H          5.8079295577       -1.7699870854       -2.6603164671
 H          5.7425510666       -2.9426375557        0.1487184887
 H          4.6934950691       -3.3250156273       -1.2298562965
 O          3.2374020002       -1.3553670368       -1.1633422432
 C          2.2638265405       -0.3832312021       -0.9851250953
 O          1.3753087557       -0.3819968767       -1.8576894483
 O          3.5311423874        1.0954626727        2.0703857670
 C          1.3158656265        1.5315307484        0.3318160066
 C         -0.0255848778        0.8735401014        0.5391346274
 C         -0.1842965002        0.0177749208        1.6268888707
 C         -1.3894202718       -0.6152118669        1.8589140272
 C         -2.4643781259       -0.4131307259        1.0099168894
 C         -2.3194996959        0.4408250868       -0.0736179243
 C         -1.1074643998        1.0831621069       -0.2996959154
 H         -1.0115832183        1.7403851519       -1.1497483051
 N         -3.4009930137        0.6403141207       -0.9463443742
 S         -4.9128824941        0.9769123608       -0.3068581210
 O         -5.6216605848        1.6703532690       -1.3603133092
 O         -4.8113316212        1.6666719334        0.9583999929
 C         -5.6521644820       -0.6255832998       -0.0708214339
 C         -6.1865003024       -0.9613955117        1.1576588974
 C         -6.7737152919       -2.2071642833        1.3154855893
 C         -6.8169371639       -3.0897506295        0.2471953035
 C         -6.2771714326       -2.7365213192       -0.9807232706
 C         -5.6898107076       -1.4923503213       -1.1454065711
 H         -5.2612061482       -1.1804255388       -2.0832593966
 H         -6.3117284036       -3.4259761189       -1.8089162153
 H         -7.2736432754       -4.0588783663        0.3719859333
 H         -7.1937870345       -2.4836261988        2.2692313909
 H         -6.1249377875       -0.2450889929        1.9614528506
 H         -3.1914707897        1.2385219966       -1.7319523430
 H         -3.4067208660       -0.9069552710        1.1822194171
 H         -1.4951710015       -1.2753042997        2.7065129689
 H          0.6564407698       -0.1431378907        2.2879788451
 H          1.5946544033        2.0317675754        1.2707338471
 C          1.3413044088        2.5510698282       -0.7867242575
 C          0.7740309160        3.9202141745       -0.5625075095
 C          2.2565575755        3.7316157232       -0.6731476071
 H          2.7567660206        4.0839031336       -1.5628223598
 H          2.8520342362        3.8147980482        0.2242135592
 H          0.2569089202        4.4061981082       -1.3763390941
 H          0.3597697572        4.1350155347        0.4111073275
 H          1.2270677708        2.1032457230       -1.7675734034
