  62
        -98.94940401
 C          0.4132792274        1.8402219934       -0.1247181923
 C          1.5843833166        1.9655655496        0.6574535040
 C          2.7472024157        1.1999795807        0.1958282901
 C          2.6464228256        0.4323993263       -0.9049747805
 C          3.7680179518       -0.3420041554       -1.5456851973
 C          4.0480642297       -1.7162453431       -0.9235944566
 C          4.6916116933       -1.6895539185        0.4626812720
 H          5.0175592083       -2.7079041411        0.6843843779
 H          5.5823329080       -1.0606994973        0.4391954746
 C          3.7582959324       -1.2170588612        1.5865048365
 H          3.8463322592       -1.8901283554        2.4429681782
 H          2.7165686991       -1.2706149364        1.2584781186
 C          4.0455379852        0.1969162271        2.0918178634
 H          5.0270293350        0.2218072775        2.5715047894
 H          3.2950755943        0.4467782326        2.8466634498
 C          4.0069395248        1.2776154631        1.0039917037
 H          4.0270832103        2.2550590246        1.4928349966
 H          4.8812063778        1.1913081240        0.3584889882
 H          4.7206707295       -2.2480013677       -1.6009629085
 H          3.1143836181       -2.2791404103       -0.8726103819
 H          4.6790371157        0.2574426767       -1.5179692824
 H          3.4828466444       -0.4887845793       -2.5896286910
 O          1.4917107319        0.3139315179       -1.6122958027
 C          0.3455136494        1.0008082512       -1.2368127832
 O         -0.6421100067        0.7914195877       -1.9645264533
 O          1.6606388981        2.6993579539        1.6813813899
 C         -0.8170355658        2.6383860310        0.2578765724
 C         -2.0183785788        1.7495049228        0.4623746311
 C         -3.3118660526        2.1616410124        0.1620478049
 C         -4.3875740064        1.3217168568        0.3893847563
 C         -4.1989087593        0.0527292781        0.9050540332
 C         -2.9095599857       -0.3675504763        1.2111716491
 C         -1.8368753702        0.4840468048        1.0034948227
 H         -0.8432261607        0.1466567393        1.2595787991
 N         -2.6750615113       -1.6494737348        1.7345878619
 S         -1.3179541722       -2.5039369364        1.2851840507
 O         -1.6325709881       -3.8741290704        1.6388802906
 O         -0.1419769432       -1.9590865547        1.9185243662
 C         -1.1602687461       -2.3917941975       -0.4878618679
 C         -2.2716591136       -2.2938567900       -1.2991228170
 C         -2.0944117761       -2.2714995087       -2.6727569322
 C         -0.8212667246       -2.3612011109       -3.2106677356
 C          0.2841412642       -2.4713970052       -2.3837378108
 C          0.1121332896       -2.4848048212       -1.0104268392
 H          0.9416648915       -2.5499651347       -0.3227136853
 H          1.2767810786       -2.5317183228       -2.8010816866
 H         -0.6875991621       -2.3360657791       -4.2806395523
 H         -2.9517596913       -2.1758527960       -3.3194070730
 H         -3.2559141361       -2.2207326338       -0.8663772576
 H         -3.4867591549       -2.2466152445        1.7951528801
 H         -5.0365883478       -0.6069667052        1.0730543120
 H         -5.3860405590        1.6559641856        0.1525000169
 H         -3.4768387087        3.1430351655       -0.2513340598
 H         -0.5727383260        3.1086366215        1.2232396929
 C         -1.0589828890        3.7315350587       -0.7657840442
 C         -1.6025740110        5.0647714356       -0.3488452815
 C         -0.1672947872        4.9358911729       -0.7585272407
 H          0.1428679454        5.3551315749       -1.7038630210
 H          0.5915995481        4.9824634532        0.0090537412
 H         -2.2788872610        5.5776479932       -1.0161618912
 H         -1.8154568727        5.2143163381        0.6989929571
 H         -1.3551972971        3.3344721916       -1.7304043763
