  62
        -98.92980188
 C          2.2964597119        0.0949779758       -0.4115367155
 C          3.3168534890       -0.7720422534        0.0457698133
 C          4.6023320542       -0.1441457102        0.4281130120
 C          4.7266409765        1.1927876129        0.3524292219
 C          5.9353620310        2.0387638746        0.6529691269
 C          6.9953152572        1.9726208879       -0.4587202585
 C          7.2698993116        0.5730771110       -1.0027711321
 H          6.3389246841        0.1476607942       -1.3820997194
 H          7.9495227727        0.6747745275       -1.8530959287
 C          7.9050187625       -0.3975770207       -0.0100453477
 H          8.1220677184       -1.3207489075       -0.5534548299
 H          8.8554403022        0.0151006469        0.3357012626
 C          7.0570725270       -0.7551861107        1.2122721885
 H          7.0705272427        0.0455566630        1.9466081275
 H          7.5242972077       -1.6216395161        1.6894992561
 C          5.6198564607       -1.1571341498        0.8963101822
 H          5.1836468248       -1.6201147714        1.7896689919
 H          5.6272911224       -1.9488616150        0.1385796106
 H          7.9216699782        2.4065150920       -0.0786338530
 H          6.6495876205        2.5904815738       -1.2911450104
 H          5.5823163599        3.0690399358        0.7358375338
 H          6.3601075986        1.7562783626        1.6115699947
 O          3.7072023882        1.9922312599       -0.0773976850
 C          2.4896359775        1.4770275100       -0.4679201187
 O          1.6662611760        2.3364301328       -0.8463720497
 O          3.1934246837       -2.0199013783        0.1397915139
 C          0.9291107516       -0.3872924796       -0.8641773676
 C         -0.0349157410       -0.5035107523        0.2882189875
 C          0.3180631422       -1.1371320541        1.4756413043
 C         -0.5988851220       -1.2566215886        2.5039786892
 C         -1.8863449542       -0.7697156302        2.3621388940
 C         -2.2469147214       -0.1304438045        1.1818182400
 C         -1.3166100047        0.0104884491        0.1614384021
 H         -1.6061043112        0.5256982664       -0.7428840249
 N         -3.5403220884        0.3851777960        1.0058886968
 S         -4.2144347769        0.2979542378       -0.5412167067
 O         -3.9005649184       -0.9778143866       -1.1430081183
 O         -3.8214360353        1.4682277441       -1.2854492161
 C         -5.9507169053        0.3899708027       -0.1478465209
 C         -6.5014584546        1.6264609119        0.1326914593
 C         -7.8439439616        1.7003589886        0.4682519527
 C         -8.6085283685        0.5438995072        0.5180700827
 C         -8.0420321965       -0.6892020638        0.2323937584
 C         -6.6994354363       -0.7708028179       -0.1026367099
 H         -6.2176712370       -1.7056685360       -0.3400682130
 H         -8.6396541478       -1.5857068732        0.2688354366
 H         -9.6534135548        0.6047307749        0.7783993902
 H         -8.2885403190        2.6574973603        0.6883184079
 H         -5.8702169310        2.4978388375        0.0719141716
 H         -4.1879418699        0.0824763590        1.7206459214
 H         -2.6046249108       -0.8774332081        3.1606630474
 H         -0.3120568322       -1.7489077523        3.4211041052
 H          1.3115727052       -1.5462743158        1.5768479550
 H          0.5480721993        0.4090643787       -1.5250298454
 C          0.9871714439       -1.6633480660       -1.6948461587
 C          0.5171978972       -2.9960367028       -1.2042599440
 C         -0.2756085500       -2.2624913790       -2.2414543974
 H         -0.2716728726       -2.6333199269       -3.2556823332
 H         -1.2163021317       -1.8220850633       -1.9409228127
 H          1.0857487330       -3.8648234059       -1.4985822567
 H          0.1148145442       -3.0583436842       -0.2057286312
 H          1.8503000890       -1.6730810523       -2.3534706724
