  62
        -98.93956834
 C         -2.0334606697        0.4340453835       -0.8199599228
 C         -2.3546565800        0.2324469653        0.5453687315
 C         -3.4412977795       -0.7230242848        0.8068287320
 C         -3.9938698678       -1.4095672874       -0.2084288030
 C         -5.0996280821       -2.4235428242       -0.0970700239
 C         -6.5052447671       -1.8070117913       -0.0740735951
 C         -6.8788853516       -1.0868504069        1.2223110674
 H         -6.6965796453       -1.7488887714        2.0693781891
 H         -7.9531340525       -0.8959158786        1.1831739500
 C         -6.1489467513        0.2457838276        1.4414268334
 H         -6.8661503010        1.0054493998        1.7600098547
 H         -5.7221958729        0.5873795097        0.4954366978
 C         -5.0427235530        0.1973771363        2.4956340878
 H         -5.4784678586       -0.0158441411        3.4740592858
 H         -4.5730922510        1.1831108721        2.5442940000
 C         -3.9454634445       -0.8377818996        2.2136615606
 H         -4.3185962162       -1.8436628150        2.4046218691
 H         -3.1053094623       -0.6411991239        2.8842132973
 H         -7.2190823729       -2.6185690542       -0.2327792826
 H         -6.5968714813       -1.1155768965       -0.9151098906
 H         -5.0201129922       -3.0686720871       -0.9748684009
 H         -4.9524311042       -3.0319134872        0.7957376157
 O         -3.5778836594       -1.2681300140       -1.4964391425
 C         -2.6120935620       -0.3330936372       -1.8336856604
 O         -2.3454407149       -0.2926892373       -3.0524101827
 H          0.4230913928       -0.7739983546       -0.8811161699
 C          0.8611863848        0.0527496166       -0.3323207317
 C          0.2533145517        1.3019483019       -0.3917483268
 C          0.8327545824        2.3503916735        0.3100985861
 C          1.9794413106        2.1470125173        1.0584529109
 C          2.5768249070        0.9014694044        1.1169423650
 C          2.0072753806       -0.1528157192        0.4153823227
 N          2.6419784981       -1.4237262841        0.4549775944
 S          3.9005027635       -1.5497275582       -0.6625027170
 O          3.5276431475       -0.9739666760       -1.9374637438
 O          4.2665770856       -2.9490291970       -0.6836915376
 C          5.1986685042       -0.5881777759        0.0785429783
 C          5.4648527649        0.6767221282       -0.4074230362
 C          6.4580028816        1.4300978086        0.1983982544
 C          7.1620507064        0.9076936789        1.2727978436
 C          6.8840223752       -0.3660930846        1.7465155883
 C          5.8914679265       -1.1244765334        1.1464102788
 H          5.6435105077       -2.1194398179        1.4770889634
 H          7.4352813500       -0.7688416807        2.5808992730
 H          7.9332266278        1.4970285786        1.7433050428
 H          6.6752699166        2.4204175590       -0.1679828197
 H          4.8895210259        1.0407780649       -1.2433435992
 H          1.9957167463       -2.1815842392        0.2782310036
 H          3.4602910779        0.7323475594        1.7104635623
 H          2.4103425020        2.9696931740        1.6078882871
 H          0.3733675133        3.3248199300        0.2896820535
 C         -0.9812892184        1.4414551003       -1.2485425831
 H         -0.7027031214        1.1416561312       -2.2733211346
 C         -1.4964592321        2.8708804747       -1.3401557576
 C         -2.9500614660        3.1563702190       -1.5699298795
 C         -2.3191063609        3.4958603301       -0.2549648753
 H         -2.1537093081        4.5376916032       -0.0225175354
 H         -2.5548510535        2.8878723839        0.6035610848
 H         -3.6250763255        2.3135605767       -1.6140030447
 H         -3.2140394958        3.9599129862       -2.2410254504
 H         -0.7962320496        3.5195752726       -1.8574056437
 O         -1.7781174925        0.8106596935        1.5009312767
