  62
        -98.94702507
 C         -2.2531151705       -0.6263258058       -0.4839926912
 C         -1.4622006245        0.3411054703       -1.1485515296
 C         -1.8211400233        1.7469637191       -0.9097086164
 C         -2.8371029806        2.0426556034       -0.0809855082
 C         -3.2747520568        3.4299315197        0.2879698529
 C         -2.5597123148        3.9283504298        1.5510171985
 C         -1.0409679289        3.7530156786        1.5185258841
 H         -0.7932539057        2.6884195519        1.5398380777
 H         -0.6446429981        4.1860249551        2.4402111209
 C         -0.3496469892        4.4020754849        0.3114642152
 H          0.5423534851        4.9254747930        0.6624030368
 H         -1.0078232983        5.1456359910       -0.1408264626
 C          0.1095174664        3.4041827076       -0.7531840225
 H          0.6555229743        2.5932123856       -0.2645373433
 H          0.8040835855        3.9149170322       -1.4260439130
 C         -1.0052582091        2.7948244229       -1.6137219653
 H         -0.5350018852        2.2908496404       -2.4630226500
 H         -1.6485506432        3.5886484790       -1.9996617040
 H         -2.9480308704        3.3765309244        2.4103982687
 H         -2.8009932312        4.9844460524        1.6882270039
 H         -3.0729958128        4.1015921458       -0.5443139491
 H         -4.3499871484        3.4108466336        0.4753711379
 O         -3.5722898569        1.0908524234        0.5489679364
 C         -3.2911623362       -0.2521720005        0.3748739125
 O         -4.0389349027       -1.0157617969        1.0206063749
 H          0.4979516453       -1.1804437885       -0.2600318224
 C          0.2587447006       -1.9360104151        0.4679703866
 C         -0.9850837933       -2.5507378793        0.4360430202
 C         -1.2701090664       -3.5346274968        1.3747289569
 C         -0.3356103958       -3.8798930257        2.3350077767
 C          0.8815804688       -3.2269187131        2.3961196866
 C          1.1763154837       -2.2391896423        1.4615696372
 N          2.3951843546       -1.5469738757        1.5124902055
 S          2.4624272188        0.1243231962        1.3062949845
 O          3.3307073115        0.5910203295        2.3704944763
 O          1.1444113325        0.7055669645        1.2628094099
 C          3.3345094824        0.3091201704       -0.2362942647
 C          4.7158187853        0.2689251101       -0.1854839817
 C          5.4387571619        0.3854595198       -1.3604305121
 C          4.7714624427        0.5398816317       -2.5665409094
 C          3.3869117546        0.5784596582       -2.6009397460
 C          2.6557880719        0.4607661027       -1.4276994139
 H          1.5768096152        0.4849516604       -1.4434907481
 H          2.8615840543        0.6969714282       -3.5352460462
 H          5.3320404483        0.6317541266       -3.4835720351
 H          6.5161495492        0.3564112249       -1.3330777185
 H          5.1925508263        0.1626158389        0.7749056417
 H          2.9878080116       -1.8213830825        2.2829130125
 H          1.5986045418       -3.4717549563        3.1656025826
 H         -0.5663537049       -4.6477075469        3.0580759826
 H         -2.2380112714       -4.0140253224        1.3622294691
 C         -2.0169414583       -2.1268755468       -0.5830398171
 H         -2.9705251546       -2.5966081842       -0.3040794225
 C         -1.6381586683       -2.6052931741       -1.9704525945
 C         -1.9153177012       -4.0285212184       -2.3468294120
 C         -2.7195644231       -2.9209422592       -2.9574537673
 H         -2.5573181857       -2.6718745334       -3.9951701590
 H         -3.7429084910       -2.7950424427       -2.6339596479
 H         -2.3964715866       -4.6572681614       -1.6129470861
 H         -1.1983061574       -4.5450131664       -2.9660530164
 H         -0.7348890037       -2.1491767900       -2.3518321004
 O         -0.5019746412        0.0726898903       -1.9193177279
