  62
        -98.94493039
 C         -1.9498992348       -0.8474835774        0.0567369381
 C         -2.2800235879        0.0993756042        1.0534694090
 C         -2.4077982427        1.4875642628        0.5996565938
 C         -2.1683122376        1.7919250912       -0.6889586448
 C         -2.2175147574        3.1685197161       -1.2955157905
 C         -3.6252229347        3.6237166143       -1.7050424538
 C         -4.5570270503        3.9799910689       -0.5459863881
 H         -4.0587308458        4.6924048596        0.1120296154
 H         -5.4247036310        4.4837366457       -0.9763509826
 C         -5.0412529540        2.7738919517        0.2707508888
 H         -4.8729204586        1.8571101334       -0.2988635205
 H         -6.1174987479        2.8552211463        0.4379482508
 C         -4.3797503971        2.6303220282        1.6414258224
 H         -4.7687356707        1.7266140605        2.1172515408
 H         -4.6458750648        3.4835313841        2.2691297106
 C         -2.8499751665        2.5180144971        1.5945659896
 H         -2.4061982087        3.4860521568        1.3617725308
 H         -2.4954170876        2.2003754693        2.5784796773
 H         -4.0814319842        2.8385723169       -2.3121654466
 H         -3.5098114665        4.5080336974       -2.3359063447
 H         -1.5894009768        3.1331184153       -2.1884774576
 H         -1.7860881555        3.8884019469       -0.5990351320
 O         -1.8288380548        0.8551707674       -1.6142244909
 C         -1.7119616294       -0.4818595292       -1.2683068615
 O         -1.4088524679       -1.2336455640       -2.2153829343
 O         -2.4562587840       -0.2022993578        2.2662011510
 C         -1.7658044162       -2.3012475000        0.4502025026
 C         -0.3618682739       -2.7427841179        0.1156550547
 C         -0.0616514585       -3.9725500966       -0.4556766054
 C          1.2473911698       -4.2977423785       -0.7674223711
 C          2.2764961572       -3.4064982032       -0.5285165621
 C          1.9884158177       -2.1811414404        0.0631647128
 C          0.6817389881       -1.8698466926        0.3968920049
 H          0.4708015831       -0.9129438431        0.8534524419
 N          3.0113652891       -1.2580447891        0.3480335604
 S          2.6578391221        0.3884631116        0.2121369735
 O          2.0111374536        0.8268742561        1.4247323112
 O          1.9596551392        0.6592968644       -1.0247131490
 C          4.3126402548        1.0518988250        0.1508285584
 C          4.8628670637        1.4032656501       -1.0670934171
 C          6.1632437016        1.8826018665       -1.1019982666
 C          6.8883027636        1.9976391172        0.0744417656
 C          6.3221171135        1.6417606526        1.2897522939
 C          5.0221542034        1.1637016522        1.3319009749
 H          4.5356678622        0.8831801308        2.2514289471
 H          6.8877193066        1.7349776841        2.2026630083
 H          7.9000962565        2.3697335564        0.0441097101
 H          6.6042166222        2.1631054731       -2.0448789599
 H          4.2577797378        1.3017434911       -1.9539337483
 H          3.8776300921       -1.4829364754       -0.1232440041
 H          3.2930423431       -3.6525619464       -0.7952663374
 H          1.4663076387       -5.2531182547       -1.2197367675
 H         -0.8540119779       -4.6708503597       -0.6701204782
 H         -1.8845271094       -2.3261934102        1.5444895628
 C         -2.8385074502       -3.1664724782       -0.1781164172
 C         -3.3210185723       -4.4027072071        0.5186751549
 C         -4.2013197827       -3.1926740151        0.4444408066
 H         -5.0639818454       -3.2177486399       -0.2042397889
 H         -4.3454766162       -2.6062728434        1.3402799696
 H         -3.5837518092       -5.2620392809       -0.0795745119
 H         -2.8749530042       -4.6452793341        1.4712819116
 H         -2.7816557206       -3.1730700460       -1.2610180639
