  62
        -98.93884820
 C         -1.2093117887       -1.2133788481       -0.8730487810
 C         -2.5677434708       -1.3868722566       -0.4793667951
 C         -3.4411239554       -0.2126480088       -0.5458050660
 C         -2.9434458524        0.9598591166       -0.9746183734
 C         -3.7024827741        2.2506584053       -1.1191241076
 C         -3.8136246579        3.0521833741        0.1848396229
 C         -4.7799088163        2.4753373560        1.2203124302
 H         -4.9327001811        3.2452615527        1.9793065242
 H         -5.7450970347        2.2849757808        0.7495623094
 C         -4.2797292144        1.1980114294        1.9097889437
 H         -4.4453022200        1.2779871809        2.9868434638
 H         -3.2006229912        1.1019078189        1.7626951687
 C         -4.9633837390       -0.0872531957        1.4419510448
 H         -4.5026513037       -0.9282561964        1.9665785646
 H         -6.0209510714       -0.0583207537        1.7141118304
 C         -4.8540133544       -0.3518285226       -0.0651171860
 H         -5.1708812850       -1.3800580070       -0.2559217483
 H         -5.5091064046        0.3246688066       -0.6139428269
 H         -4.1525322547        4.0574574292       -0.0767965528
 H         -2.8179051838        3.1407201128        0.6272073962
 H         -3.1574231668        2.8531468485       -1.8490089555
 H         -4.7003685954        2.0482858036       -1.5096866206
 O         -1.6511214299        1.0923836453       -1.3584686160
 C         -0.7459572069        0.0376324170       -1.2908708550
 O          0.3967055856        0.3782326633       -1.6486845314
 H          1.3525042255       -0.4793990687        0.0648658653
 C          1.3571379764       -1.3164857459        0.7402370184
 C          0.5494390788       -2.4137689524        0.4861964054
 C          0.5840373223       -3.4847411416        1.3741697315
 C          1.3940726471       -3.4458420704        2.4946096176
 C          2.1690699030       -2.3316871766        2.7644063568
 C          2.1436433399       -1.2588382203        1.8814740858
 N          2.9206903625       -0.1144932222        2.1068317054
 S          2.3717672577        1.3880542017        1.6115051275
 O          3.1346071346        2.3237358951        2.4166210853
 O          0.9354966238        1.5015551774        1.7359279761
 C          2.9022576707        1.5544413226       -0.0783237951
 C          3.9275917278        0.7681729971       -0.5620635856
 C          4.3482216300        0.9506290804       -1.8695085406
 C          3.7467763989        1.9148129136       -2.6625907957
 C          2.7230204832        2.7003220758       -2.1584485992
 C          2.2942399562        2.5194746019       -0.8539519433
 H          1.4855552774        3.0947461545       -0.4309848303
 H          2.2476715911        3.4438340864       -2.7782919566
 H          4.0716222048        2.0503010608       -3.6823732303
 H          5.1386965058        0.3344536774       -2.2672309175
 H          4.3673940171        0.0185257446        0.0747358920
 H          3.3962563671       -0.0743112362        2.9960601709
 H          2.7843336744       -2.2892836803        3.6501939505
 H          1.4101492786       -4.2835674751        3.1752190401
 H         -0.0425576618       -4.3449448265        1.1881556600
 C         -0.3517595411       -2.4612117323       -0.7279481914
 H         -1.1019332051       -3.2429497499       -0.5274003357
 C          0.4381608026       -2.9678530971       -1.9322783794
 C          0.2073689926       -2.4939919691       -3.3332351386
 C          1.5104814781       -2.2074441344       -2.6491834531
 H          2.3873927767       -2.7531012275       -2.9654611373
 H          1.6989036553       -1.1891988608       -2.3534309883
 H         -0.4701825509       -1.6640812322       -3.4726359905
 H          0.1770776731       -3.2242402085       -4.1284747198
 H          0.6300225270       -4.0325863485       -1.8269911831
 O         -3.0384994974       -2.4905863111       -0.0898088911
