  62
        -98.94134402
 C         -2.4931302024       -0.3067084209        0.6064689390
 C         -2.3612426833        0.3447962289       -0.6458765243
 C         -2.2330740632        1.8078437470       -0.5965539321
 C         -2.1390873521        2.4344826457        0.5884556291
 C         -2.0016443093        3.9176038912        0.8023996497
 C         -0.5667096922        4.4388147841        0.6454867913
 C         -0.0571843616        4.5263410329       -0.7938427745
 H         -0.7925660114        5.0466647157       -1.4088516426
 H          0.8455644707        5.1402585306       -0.7742022869
 C          0.2871431118        3.1730183171       -1.4302702678
 H          1.2389581828        3.2572262459       -1.9607986392
 H          0.4274007954        2.4193496875       -0.6519484409
 C         -0.7391640720        2.6562516249       -2.4383629779
 H         -0.7520663078        3.3064400056       -3.3169661395
 H         -0.4260768959        1.6586423025       -2.7567285127
 C         -2.1695095638        2.5501825903       -1.8980212483
 H         -2.6017995925        3.5445043486       -1.7833183162
 H         -2.7644004718        1.9908582093       -2.6250117302
 H          0.1018407949        3.7992239048        1.2274509863
 H         -0.5355125911        5.4402626560        1.0817183568
 H         -2.6613552384        4.4499549072        0.1159728535
 H         -2.3312939071        4.1145479405        1.8249417277
 O         -2.1813980196        1.7645732482        1.7720875874
 C         -2.3508962001        0.3908221837        1.8079262539
 O         -2.3653586535       -0.0883786253        2.9620466365
 H         -0.0399705652       -1.4384339370        1.0991253695
 C         -0.2033494153       -2.0754346060        0.2399996954
 C         -1.5015389913       -2.4281232622       -0.1080194576
 C         -1.6969006646       -3.2582211105       -1.2022544169
 C         -0.6122664961       -3.6916327670       -1.9461583052
 C          0.6735452123       -3.2948107969       -1.6291335571
 C          0.8786920652       -2.4752561464       -0.5234300421
 N          2.1699886309       -2.0593587595       -0.1564758635
 S          2.3363605257       -0.5912699855        0.6611396475
 O          2.1702090406       -0.8388958397        2.0733932036
 O          1.4866947259        0.4227562899        0.0824726691
 C          4.0484166781       -0.2268811365        0.3202443863
 C          4.3630932920        0.7061387907       -0.6491540875
 C          5.6973118120        0.9623808080       -0.9249578553
 C          6.6878996330        0.2823859963       -0.2326968803
 C          6.3564371176       -0.6510674657        0.7385176021
 C          5.0247512634       -0.9106577786        1.0203961408
 H          4.7179359276       -1.6180910771        1.7730295691
 H          7.1293286746       -1.1754581946        1.2767426927
 H          7.7251132316        0.4833824665       -0.4492760964
 H          5.9575098015        1.6900251696       -1.6766437718
 H          3.5571943096        1.2132379627       -1.1555653878
 H          2.8482093885       -2.1632042536       -0.8984199089
 H          1.5123009068       -3.6096483951       -2.2310838789
 H         -0.7744095528       -4.3292508630       -2.8021075902
 H         -2.6969658831       -3.5357459809       -1.4923416490
 C         -2.6086299627       -1.8204301977        0.7165590127
 H         -2.3939383599       -2.0391808705        1.7763721669
 C         -3.9864972996       -2.3931189299        0.4287792538
 C         -5.2211610590       -1.5860737527        0.6974094553
 C         -4.8442629538       -1.9334917754       -0.7098413056
 H         -5.4384218004       -2.6726570837       -1.2273990071
 H         -4.4551432233       -1.1579475956       -1.3488224508
 H         -6.0718024972       -2.0792343257        1.1434274521
 H         -5.0836201345       -0.5658243218        1.0266387896
 H         -4.0393376292       -3.4482794491        0.6806140258
 O         -2.3709072929       -0.2439589747       -1.7572336038
