  62
        -98.93997962
 C          2.1201067077        1.4408381353        0.5428661861
 C          2.0577370553        0.2290743836        1.2791035868
 C          3.1094276744       -0.7540119048        1.0062974391
 C          4.0750804678       -0.4623608111        0.1164650284
 C          5.2299350125       -1.3504949109       -0.2596095682
 C          4.8909355660       -2.3870265747       -1.3397946682
 C          3.9973260013       -3.5393939380       -0.8790138903
 H          4.0224281793       -4.2966353140       -1.6651726083
 H          4.4217502797       -3.9893428772        0.0190269022
 C          2.5364519598       -3.1440386802       -0.6201009256
 H          2.3286185827       -2.1821663621       -1.0944754238
 H          1.8746469503       -3.8773683283       -1.0855905669
 C          2.1534841492       -3.0580717210        0.8575435394
 H          2.2164477281       -4.0494342892        1.3116731607
 H          1.1175884364       -2.7163330329        0.9207510819
 C          3.0165865419       -2.0904888241        1.6775753277
 H          2.5389311591       -1.9422794741        2.6491039153
 H          4.0103034998       -2.5088050728        1.8360911261
 H          4.4185518480       -1.8729329095       -2.1801031852
 H          5.8348231619       -2.8066154481       -1.6956795668
 H          6.0142002698       -0.6954237075       -0.6452176276
 H          5.6071079339       -1.8577830307        0.6288553967
 O          4.1162504551        0.7188491624       -0.5516792915
 C          3.1227933390        1.6824982852       -0.3966746311
 O          3.2727785163        2.6717634347       -1.1358478241
 H         -1.5224876847        1.9192946457        1.6505421461
 C         -1.4283244520        1.7816768852        0.5822573410
 C         -0.2051711423        2.0099014145       -0.0285251706
 C         -0.0914017502        1.7979210046       -1.3992140862
 C         -1.1851524239        1.3832971725       -2.1366077845
 C         -2.4066712613        1.1601710255       -1.5243314382
 C         -2.5261096455        1.3536897865       -0.1547597220
 N         -3.7572483283        1.1208178113        0.4792358152
 S         -4.6241666974       -0.2552852808        0.0855193577
 O         -5.2572058870       -0.0743459173       -1.1966193716
 O         -5.5107366816       -0.4680360865        1.2066759817
 C         -3.4192233929       -1.5666576556       -0.0089178021
 C         -2.8014734233       -1.9646334303        1.1602416066
 C         -1.8494392466       -2.9689152694        1.1079047948
 C         -1.5288737572       -3.5519158165       -0.1087338284
 C         -2.1563078931       -3.1401459941       -1.2739324345
 C         -3.1117011268       -2.1374386259       -1.2268649280
 H         -3.6279835435       -1.7947990181       -2.1086422642
 H         -1.9042854713       -3.5962395874       -2.2177719445
 H         -0.7860634203       -4.3332551835       -0.1459228271
 H         -1.3578382894       -3.2879181712        2.0131361191
 H         -3.0787204704       -1.4972979625        2.0914398460
 H         -3.7342774858        1.2567864905        1.4792378304
 H         -3.2679581392        0.8413409792       -2.0880234226
 H         -1.0866315409        1.2289323630       -3.2004870826
 H          0.8646888657        1.9606910346       -1.8754857132
 C          0.9893644545        2.4227371526        0.7937052074
 H          0.7211984310        2.2793263112        1.8529337604
 C          1.3704851322        3.8838856908        0.6211185671
 C          0.8680442136        4.7465115972       -0.4933916692
 C          0.3539196188        4.9522886599        0.8979640772
 H          0.6607114369        5.8326437944        1.4420039459
 H         -0.6568460322        4.6334941233        1.1056884482
 H          1.5521423520        5.4697675694       -0.9099868391
 H          0.2028709697        4.3098916269       -1.2215604783
 H          2.3837143632        4.0799884574        0.9551517357
 O          1.1603114720       -0.0122637535        2.1302294298
