  62
        -98.94078698
 C         -1.9320026329       -1.5262975665        0.0027729085
 C         -1.7216391522       -0.2508227664       -0.5662343859
 C         -2.9079139189        0.6144523445       -0.7026167806
 C         -4.1107876250        0.1517427995       -0.3136864461
 C         -5.4886525820        0.7785017677       -0.3708852458
 C         -5.6573949859        2.2628137749       -0.6836635020
 C         -5.1560336110        3.2073255698        0.4096229414
 H         -5.1994021256        4.2291036496        0.0266425650
 H         -5.8391471624        3.1423915410        1.2603138649
 C         -3.7486951317        2.9294975221        0.9320560667
 H         -3.7132670446        1.9325289281        1.3758682879
 H         -3.5424124042        3.6451763036        1.7324770870
 C         -2.6288989915        3.0527747842       -0.0987866494
 H         -1.6807559351        2.9496438292        0.4365533293
 H         -2.6545822298        4.0452336969       -0.5532504310
 C         -2.6467103968        2.0002180845       -1.2191327337
 H         -3.3554400317        2.2660212117       -1.9992573453
 H         -1.6528902684        1.9715833348       -1.6762764762
 H         -6.7305865670        2.4361038554       -0.8010773818
 H         -5.1966348579        2.4987782863       -1.6384137726
 H         -5.9580144731        0.5594460899        0.5935835757
 H         -6.0433598575        0.2015786724       -1.1191166724
 O         -4.2670814190       -1.1038558982        0.2030538418
 C         -3.1971904813       -1.9593542897        0.3929076355
 O         -3.4959010107       -3.0538852791        0.9115872896
 O         -0.5935632263        0.1556327071       -0.9476547049
 C         -0.7573335029       -2.4663173892        0.2041584828
 C          0.3101852711       -1.7767348254        1.0183632503
 C         -0.0422670615       -1.2228750247        2.2474802449
 C          0.8947741373       -0.5739813778        3.0269129548
 C          2.2042235236       -0.4550666122        2.5931192395
 C          2.5683200708       -1.0093325325        1.3729787780
 C          1.6268422074       -1.6764496389        0.5989268691
 H          1.9402531719       -2.0897419558       -0.3445183714
 N          3.8968778997       -0.9261972820        0.9132731738
 S          4.2188110247       -0.2179229925       -0.5703780618
 O          3.5438945466       -0.9390032938       -1.6169241404
 O          5.6634975131       -0.1808092006       -0.6493853464
 C          3.5952388424        1.4476028010       -0.4253650994
 C          2.2413735147        1.6851904049       -0.5519516078
 C          1.7772888402        2.9803715594       -0.3769264976
 C          2.6609095922        4.0054271354       -0.0787487922
 C          4.0178501317        3.7473584487        0.0467603730
 C          4.4903404365        2.4566935854       -0.1236972109
 H          5.5366277711        2.2098035696       -0.0412567295
 H          4.7054118857        4.5452454451        0.2772355394
 H          2.2893881326        5.0092484520        0.0551784586
 H          0.7203299657        3.1711523485       -0.4765925321
 H          1.5615694783        0.8802369571       -0.7827491281
 H          4.5398869834       -0.5555806851        1.5994549020
 H          2.9374689460        0.0590487316        3.1960578652
 H          0.6038745098       -0.1497061937        3.9760415031
 H         -1.0683663433       -1.3077972405        2.5801652939
 H         -1.1419140955       -3.3149804247        0.7887674862
 C         -0.2647170289       -2.9821920664       -1.1315563015
 C          0.4175176797       -4.3131716326       -1.2177427033
 C         -0.9672125127       -4.1433849472       -1.7651908059
 H         -1.1035057958       -4.1422470909       -2.8363116183
 H         -1.7918056846       -4.5801584074       -1.2202999909
 H          1.2359727475       -4.4264008200       -1.9129258449
 H          0.5355889413       -4.8746992071       -0.3032104920
 H          0.0817454526       -2.1913997703       -1.7879155433
