  62
        -98.94443014
 C          1.9417184322        0.8634940118        0.0508059601
 C          2.4048407019       -0.4649520872        0.2083286325
 C          3.8201548086       -0.6033471007        0.5765934666
 C          4.5747929568        0.4941897886        0.7662189747
 C          6.0263018907        0.5140044265        1.1624117081
 C          6.9966092945        0.3478476826       -0.0151589897
 C          7.0630228980       -1.0592099359       -0.6103498632
 H          7.9309610203       -1.0864230953       -1.2721952338
 H          7.2390910855       -1.7820842688        0.1868303135
 C          5.8191516724       -1.4674724327       -1.4120479729
 H          6.1272642503       -1.9266073280       -2.3541734116
 H          5.2394589343       -0.5767747241       -1.6653384710
 C          4.9053864893       -2.4651174754       -0.6999845378
 H          4.0395197373       -2.6545618046       -1.3397663403
 H          5.4332399998       -3.4112345701       -0.5603837652
 C          4.3898703964       -1.9869128792        0.6637118234
 H          3.5864632137       -2.6564182080        0.9811638322
 H          5.1899650093       -2.0248334397        1.4026925074
 H          6.7234800703        1.0610784796       -0.7962196460
 H          7.9932660648        0.6140871594        0.3442503149
 H          6.2148088572       -0.2632421671        1.9034643018
 H          6.2091057019        1.4868026332        1.6238514302
 O          4.0814232581        1.7543615396        0.6338995970
 C          2.7655198372        1.9698773289        0.2580130055
 O          2.4507242365        3.1728100399        0.1535514389
 O          1.6806670288       -1.4823869189        0.0532339400
 C          0.5037765714        1.1233330583       -0.3640868732
 C         -0.4368788311        0.4880162550        0.6301067787
 C         -0.3040803055        0.8240056239        1.9758415534
 C         -1.1216342427        0.2536385275        2.9308862389
 C         -2.0980093889       -0.6565996481        2.5638571348
 C         -2.2432478343       -0.9951243792        1.2245930925
 C         -1.4203592374       -0.4168982178        0.2656918741
 H         -1.5450487347       -0.7139483265       -0.7614062396
 N         -3.2116624650       -1.9321886983        0.8312848065
 S         -4.1702130207       -1.6704444228       -0.5111774184
 O         -5.2456492114       -2.6280354988       -0.3774313701
 O         -3.3876724537       -1.7541146229       -1.7169686786
 C         -4.8003377198       -0.0172864274       -0.2881586609
 C         -4.1712244072        1.0453470715       -0.9037975704
 C         -4.6356339984        2.3286566013       -0.6610593648
 C         -5.7133587826        2.5260231615        0.1880398307
 C         -6.3374668996        1.4468890384        0.7957638134
 C         -5.8756178204        0.1624483048        0.5604845410
 H         -6.3389915957       -0.7041347147        1.0035734864
 H         -7.1787278291        1.6033872143        1.4515762811
 H         -6.0701038081        3.5267682475        0.3741959515
 H         -4.1528624607        3.1685485530       -1.1349000329
 H         -3.3395705600        0.8532973193       -1.5611198150
 H         -3.7563589552       -2.3124190984        1.5912823576
 H         -2.7320397711       -1.1116324355        3.3095932711
 H         -1.0004985760        0.5188686272        3.9703627210
 H          0.4623586744        1.5321755158        2.2611533795
 H          0.3683490580        2.2136522921       -0.3163761798
 C          0.2862286901        0.6687942384       -1.7917697101
 C         -0.7286473176        1.3543393040       -2.6544023567
 C          0.7339156527        1.5567354399       -2.9121680318
 H          1.1743633337        1.1014196389       -3.7865530880
 H          1.1738854110        2.5069653902       -2.6455202785
 H         -1.2983636716        0.7587848624       -3.3527808662
 H         -1.2756677690        2.1776587935       -2.2198730744
 H          0.4279447532       -0.3985283679       -1.9201358631
