  62
        -98.94431815
 C         -2.6232024131       -1.1098928154        0.1993410727
 C         -2.7273164890       -0.3133252067       -0.9669499688
 C         -3.5681075664        0.8843310879       -0.8440894174
 C         -4.1909865734        1.1502484203        0.3185166321
 C         -5.1025821850        2.3168640747        0.5880996157
 C         -4.3683312663        3.6073213608        0.9774937363
 C         -3.6225074214        4.3007279194       -0.1634075171
 H         -4.3003646215        4.4417038965       -1.0056616623
 H         -3.3378840431        5.2917785351        0.1955940478
 C         -2.3600631798        3.5643217394       -0.6337584722
 H         -2.0600300637        2.8366655310        0.1243041690
 H         -1.5382820539        4.2768392729       -0.7343595909
 C         -2.5069466874        2.8474684304       -1.9761320807
 H         -1.5692963837        2.3287294223       -2.1921280385
 H         -2.6767828302        3.5821176159       -2.7661272219
 C         -3.6398029173        1.8134158597       -2.0180260713
 H         -4.6070278220        2.3141814333       -2.0510089083
 H         -3.5225523595        1.2134111510       -2.9235172981
 H         -3.6690128501        3.3810833754        1.7861199910
 H         -5.1151737256        4.3012512007        1.3700128937
 H         -5.7456827813        2.0226242296        1.4203743423
 H         -5.7277369214        2.5021620117       -0.2856664286
 O         -4.0713549759        0.3522617676        1.4141997833
 C         -3.2680163786       -0.7774121250        1.3893633279
 O         -3.2096626362       -1.3910556200        2.4757452410
 O         -2.1512233358       -0.5851273949       -2.0511544895
 C         -1.7652325561       -2.3607508277        0.1809540682
 C         -0.3422606230       -2.0234073729       -0.1967570305
 C          0.4215531728       -2.8091484483       -1.0499034497
 C          1.7294895067       -2.4618032554       -1.3413323506
 C          2.3040081247       -1.3309877433       -0.7917706275
 C          1.5544189375       -0.5448075671        0.0736292286
 C          0.2474822280       -0.8995541598        0.3690113531
 H         -0.3330618224       -0.2867708322        1.0494495680
 N          2.1305587795        0.6112079768        0.6332793324
 S          3.5794484377        0.4284007257        1.4661323835
 O          3.6913345744       -0.8909257585        2.0445688210
 O          3.6283531505        1.5413013361        2.3894099561
 C          4.8268075920        0.6552352452        0.2164004592
 C          5.7749444621       -0.3265722525        0.0051386973
 C          6.7434463838       -0.1244060757       -0.9659459753
 C          6.7464345873        1.0493986925       -1.7038482977
 C          5.7882762298        2.0265244744       -1.4775952938
 C          4.8182205904        1.8315200435       -0.5074435623
 H          4.0586706469        2.5663169333       -0.2982958805
 H          5.7937375828        2.9379937793       -2.0533928598
 H          7.5001183709        1.2041257150       -2.4597220522
 H          7.4892529181       -0.8825459101       -1.1430769880
 H          5.7288052016       -1.2252957032        0.5991956117
 H          1.4829891204        1.1580464245        1.1822008985
 H          3.3188860209       -1.0521155582       -1.0235660762
 H          2.3083683861       -3.0792420978       -2.0109768622
 H         -0.0088109022       -3.6936289851       -1.4898791079
 H         -1.7580773914       -2.7420467255        1.2134571664
 C         -2.3946419513       -3.4049236028       -0.7189826733
 C         -2.2336312417       -4.8637418320       -0.4175638569
 C         -3.5570465970       -4.1953395659       -0.2007253552
 H         -4.3690179446       -4.4222228456       -0.8751040079
 H         -3.8744531561       -4.0001853926        0.8137364154
 H         -2.1403579302       -5.5538519253       -1.2425513384
 H         -1.6556644801       -5.1345731334        0.4532933015
 H         -2.4238433285       -3.0935320417       -1.7567603751
