  62
        -98.93779417
 C         -1.7051967196       -1.2933664335       -0.0449331642
 C         -1.8854210366        0.0522491000       -0.4396773514
 C         -3.2776538447        0.4923599893       -0.6487272541
 C         -4.2842906363       -0.3817631692       -0.4626489475
 C         -5.7811007046       -0.2301482212       -0.6389518917
 C         -6.4165906854        1.1517677030       -0.7679677564
 C         -6.3417113181        2.0108366227        0.4939777408
 H         -6.7312167495        3.0029589499        0.2554121929
 H         -6.9946766593        1.5712659939        1.2523250327
 C         -4.9532108080        2.1573939144        1.1117141811
 H         -4.5948461620        1.1811510702        1.4448286102
 H         -5.0483982852        2.7847381705        2.0022946882
 C         -3.8976163168        2.7912457110        0.2078979075
 H         -3.0096728569        2.9739177689        0.8191803687
 H         -4.2576938549        3.7551547073       -0.1569813848
 C         -3.4605019846        1.9412033058       -0.9976092231
 H         -4.1480588700        2.0540208182       -1.8322316360
 H         -2.4810890239        2.3010058388       -1.3257406394
 H         -7.4741730325        0.9874751181       -0.9920715898
 H         -5.9946832690        1.6826422462       -1.6161244510
 H         -6.2345987341       -0.7545072770        0.2082388578
 H         -6.0353258873       -0.8122647038       -1.5317010190
 O         -4.0555033815       -1.6776909094       -0.0941756578
 C         -2.7797570822       -2.1602841476        0.1362144856
 O         -2.7367652304       -3.3547112652        0.4959842307
 O         -0.9322391694        0.8536422436       -0.6164074587
 C         -0.3062313931       -1.8235199375        0.2107066043
 C          0.3716689822       -0.9784655092        1.2616024191
 C         -0.2964699030       -0.7226445129        2.4566422082
 C          0.2813012454        0.0662716178        3.4317719223
 C          1.5356200641        0.6182436292        3.2373662791
 C          2.2140113721        0.3642462288        2.0514006410
 C          1.6346754023       -0.4404564925        1.0789048202
 H          2.1809986405       -0.6415629858        0.1742916872
 N          3.4599407713        0.9480200343        1.8101447155
 S          4.5531733175        0.3616527440        0.7033466374
 O          4.7043743486       -1.0716104186        0.8035562052
 O          5.7512691135        1.1363425170        0.9478982939
 C          3.8808483220        0.7954618997       -0.8876831407
 C          3.2346606615        2.0050467517       -1.0431320990
 C          2.7223960432        2.3338103991       -2.2877019553
 C          2.8683822973        1.4562648116       -3.3507972674
 C          3.5275198035        0.2486608192       -3.1808601057
 C          4.0407253477       -0.0863319880       -1.9382810571
 H          4.5505785188       -1.0196560842       -1.7572452698
 H          3.6385580995       -0.4332629533       -4.0090778621
 H          2.4624228556        1.7130725828       -4.3166520942
 H          2.2033561665        3.2690693978       -2.4222718933
 H          3.1277782315        2.6620385538       -0.1962325763
 H          3.8766831314        1.4622685521        2.5698692899
 H          1.9823890099        1.2448809534        3.9939669501
 H         -0.2496796050        0.2576103804        4.3523579238
 H         -1.2804418851       -1.1471310653        2.6060350365
 H         -0.4316045649       -2.8392838556        0.6138389593
 C          0.4637305418       -1.9052406352       -1.0910865678
 C          1.5651659737       -2.9073072112       -1.2551236787
 C          0.2659248528       -3.0965369525       -1.9773545022
 H          0.2428392555       -2.9459963331       -3.0460039817
 H         -0.4077287296       -3.8666215175       -1.6299647191
 H          2.4357936392       -2.6266264667       -1.8279958064
 H          1.7835223666       -3.5533297346       -0.4180216929
 H          0.5762462030       -0.9387486955       -1.5698107719
