  62
        -98.94449450
 C         -2.6519815134       -1.2895660048        0.1150739265
 C         -2.5603300391       -0.2894488225       -0.8832237521
 C         -3.5332973181        0.8089841897       -0.7812144099
 C         -4.4418850590        0.8006532140        0.2106367788
 C         -5.4529254794        1.8810053905        0.4603167457
 C         -4.9059967654        2.9390817732        1.4286506357
 C         -3.5132974395        3.4523888444        1.0620104767
 H         -3.2446845291        4.2167043673        1.7944925162
 H         -2.7904657777        2.6397129952        1.1686968380
 C         -3.4049388283        4.0409410277       -0.3515682252
 H         -2.8412032195        4.9747643473       -0.2995914865
 H         -4.3989478286        4.2822891098       -0.7300805960
 C         -2.6838168509        3.1438962066       -1.3597769812
 H         -1.7223272814        2.8247381162       -0.9468625861
 H         -2.4711756856        3.7390251700       -2.2522956659
 C         -3.4546150589        1.8976594906       -1.8140812230
 H         -4.4531362399        2.1851225206       -2.1497493010
 H         -2.9164518569        1.4672541427       -2.6638453667
 H         -4.8560566285        2.5012704922        2.4281453521
 H         -5.6067746218        3.7752758428        1.4579716989
 H         -6.3419293511        1.4249672796        0.8990656866
 H         -5.7231702927        2.3445739881       -0.4863167257
 O         -4.5105468505       -0.1855648976        1.1402287631
 C         -3.6103598695       -1.2361904811        1.1307202681
 O         -3.7667372760       -2.0531208266        2.0597102598
 O         -1.7205053894       -0.3031597791       -1.8223508086
 C         -1.6782086745       -2.4578644283        0.1614683203
 C         -0.3193055431       -1.9110370265        0.5248738860
 C         -0.0179278669       -1.6753966150        1.8635501888
 C          1.1879582227       -1.1051023318        2.2252467738
 C          2.1129868281       -0.7448121180        1.2601622881
 C          1.8130829184       -0.9580072462       -0.0778618314
 C          0.6124423774       -1.5565320818       -0.4376145073
 H          0.3880070729       -1.7048708688       -1.4818089744
 N          2.7368837876       -0.5770700128       -1.0668260597
 S          3.3937500351        0.9661075344       -0.9731493683
 O          2.5121803406        1.8866750875       -0.2930697633
 O          3.7604872342        1.3064069774       -2.3307311967
 C          4.8811969471        0.7262790297       -0.0218796609
 C          5.1120093305        1.4914611110        1.1043883129
 C          6.2806816498        1.2916706957        1.8230347777
 C          7.1935338864        0.3359597609        1.4042220249
 C          6.9485924844       -0.4221097051        0.2687764397
 C          5.7830299240       -0.2263651918       -0.4544412250
 H          5.5566299288       -0.7911239923       -1.3432458794
 H          7.6609701536       -1.1641463335       -0.0540412606
 H          8.1012211725        0.1813286303        1.9659142314
 H          6.4728031720        1.8809256846        2.7053527151
 H          4.3710153740        2.2192596041        1.3953241228
 H          2.4121161856       -0.7631092625       -2.0053258579
 H          3.0494390677       -0.2866611029        1.5335851694
 H          1.4096185796       -0.9335652060        3.2677156540
 H         -0.7515584024       -1.9324682932        2.6153374986
 H         -2.0183857668       -3.0986099192        0.9855351287
 C         -1.6950603532       -3.2654953804       -1.1192755553
 C         -1.0727845345       -4.6284866915       -1.1307784577
 C         -2.5625200408       -4.4838173802       -1.2021315748
 H         -3.0587528322       -4.6989115751       -2.1366643218
 H         -3.1450728602       -4.7423336326       -0.3298976720
 H         -0.5442686910       -4.9475991931       -2.0160030220
 H         -0.6423129352       -4.9853763772       -0.2074009018
 H         -1.6111982901       -2.6603298172       -2.0130821843
