  62
        -98.93763669
 C         -0.3439150647       -2.1372427874       -0.5945978667
 C          0.4927784306       -2.2535738021        0.5434342239
 C          1.9387873551       -2.0434311668        0.3106755667
 C          2.3844757785       -1.7489172386       -0.9211709288
 C          3.8016212056       -1.5316914157       -1.3904137455
 C          4.7360953074       -0.7140872392       -0.4897490674
 C          4.0576825067        0.4150566621        0.2999033710
 H          4.6112809152        1.3428325240        0.1427091541
 H          3.0425485914        0.5800131086       -0.0648220746
 C          4.0132850960        0.1453668507        1.8055088134
 H          4.9819118169       -0.2511148646        2.1202795837
 H          3.8591490463        1.0933702469        2.3273930260
 C          2.9064908875       -0.8004973862        2.2718248154
 H          1.9387397452       -0.2980013520        2.1934562876
 H          3.0674512038       -1.0041904666        3.3339731710
 C          2.8153631954       -2.1418829708        1.5257593179
 H          3.8045182161       -2.5202219906        1.2759497871
 H          2.3266916566       -2.8589367601        2.1917149995
 H          5.2426632709       -1.3781705232        0.2092231359
 H          5.5068310451       -0.2921163980       -1.1368321268
 H          4.2508992863       -2.5124611381       -1.5728543503
 H          3.7064783900       -1.0376938385       -2.3602704678
 O          1.5414007642       -1.6413412035       -1.9878198524
 C          0.1765263538       -1.8242023264       -1.8522643111
 O         -0.4628814579       -1.6881409616       -2.9141541020
 H         -1.2224339811       -0.2339886210        1.1039422957
 C         -2.0248959877        0.0243986408        0.4295385462
 C         -2.4952903196       -0.9140791761       -0.4790375475
 C         -3.5447923964       -0.5636649082       -1.3200260775
 C         -4.1079652695        0.6981316683       -1.2534523286
 C         -3.6205542792        1.6381952695       -0.3640010887
 C         -2.5684025651        1.3002942705        0.4803140139
 N         -2.0535723244        2.2402500215        1.3896366064
 S         -0.3992534939        2.4543865042        1.5218299981
 O          0.2059203473        1.2990135883        2.1264265808
 O         -0.2588674101        3.7027006905        2.2392983375
 C          0.1694550270        2.6605838044       -0.1542573756
 C          0.5392039402        1.5513440907       -0.8867626134
 C          0.9165922887        1.7149195077       -2.2102717043
 C          0.9215679320        2.9811911856       -2.7740957273
 C          0.5538333756        4.0881330193       -2.0234942514
 C          0.1675419675        3.9283528054       -0.7029051792
 H         -0.1194809172        4.7608621081       -0.0811285539
 H          0.5637150565        5.0714649904       -2.4653540043
 H          1.2152876915        3.1018982222       -3.8048236751
 H          1.1900824867        0.8474990214       -2.7911404773
 H          0.5267473608        0.5782304665       -0.4201997610
 H         -2.5199687112        3.1359769161        1.3646529873
 H         -4.0480736858        2.6283027573       -0.3206257324
 H         -4.9238934841        0.9577422615       -1.9103028212
 H         -3.9071117721       -1.2830210577       -2.0393423719
 C         -1.8580009148       -2.2790513521       -0.5632320565
 H         -2.1312874183       -2.7027753152       -1.5438319308
 C         -2.3725898846       -3.2396416010        0.4974730851
 C         -3.0428276733       -2.7923668713        1.7577933710
 C         -3.8493820986       -3.4379367208        0.6735467872
 H         -4.2203762999       -4.4393779903        0.8303938081
 H         -4.5097699804       -2.8046344962        0.1005821029
 H         -2.8329078241       -3.3487045414        2.6585169703
 H         -3.1614464691       -1.7328488068        1.9249921501
 H         -1.7506697233       -4.1250755125        0.5753597561
 O          0.0870451844       -2.5395422687        1.6974482477
