  62
        -98.93880061
 C         -1.8765593906       -0.8749543749       -0.2700803273
 C         -3.0054828424       -1.1154734747        0.5493551130
 C         -4.2916150652       -0.5394100487        0.1127628260
 C         -4.3217535952        0.1858232948       -1.0207833353
 C         -5.4919309342        0.9031950664       -1.6396895444
 C         -5.8433713153        2.2068717712       -0.9055537930
 C         -5.8614543911        2.1015909305        0.6170495781
 H         -6.0218741767        3.1064137834        1.0168343149
 H         -4.8817528100        1.7686979910        0.9648102660
 C         -6.9430552987        1.1910780861        1.1937246701
 H         -7.9225690866        1.5459370675        0.8654516738
 H         -6.9023779521        1.2896095526        2.2815414969
 C         -6.8220160711       -0.2948434855        0.8479649114
 H         -7.1734298053       -0.4941212244       -0.1608527184
 H         -7.4893200953       -0.8403536790        1.5216036555
 C         -5.4283126330       -0.8823532366        1.0453915529
 H         -5.5049631850       -1.9761629302        1.0243702039
 H         -5.0761525354       -0.6389430278        2.0542599494
 H         -6.8161697862        2.5509922428       -1.2609340643
 H         -5.0990711602        2.9593156173       -1.1780670051
 H         -6.3525290603        0.2427436556       -1.6887022647
 H         -5.2024766772        1.1489956298       -2.6638803687
 O         -3.2060102055        0.4014647864       -1.7736389666
 C         -1.9670224983       -0.1079952068       -1.4307602882
 O         -1.0591206518        0.1836956598       -2.2334721735
 O         -2.9472402666       -1.7879375983        1.6137065718
 C         -0.5403532183       -1.4476495533        0.1726728331
 C          0.3386721577       -0.3129795608        0.6353296741
 C          0.2341151174        0.1479865960        1.9443327283
 C          1.0068697744        1.2061755719        2.3866623554
 C          1.8962115845        1.8321617642        1.5302344366
 C          1.9995062465        1.3848798252        0.2203480225
 C          1.2353079893        0.3123317292       -0.2179589508
 H          1.3158222913       -0.0142611918       -1.2427163965
 N          2.9092932611        2.0173154775       -0.6567212192
 S          4.5277777748        1.8228726892       -0.2704931160
 O          4.8126741486        2.5577962094        0.9355259419
 O          5.2660691681        2.2140355869       -1.4495478723
 C          4.7015351810        0.0724124931        0.0220743813
 C          4.4641332896       -0.4261507755        1.2872709409
 C          4.5086161295       -1.7969350020        1.4842776544
 C          4.7870543407       -2.6402781607        0.4199446684
 C          5.0266754256       -2.1230527265       -0.8439226959
 C          4.9766576909       -0.7538973974       -1.0490940272
 H          5.1584862977       -0.3103637803       -2.0150902102
 H          5.2474455174       -2.7813684335       -1.6689764476
 H          4.8175825744       -3.7071324363        0.5758946139
 H          4.3223678789       -2.2014875915        2.4661377302
 H          4.2557895355        0.2619935327        2.0898228163
 H          2.7592786052        1.7598062263       -1.6223980428
 H          2.5154827072        2.6522943103        1.8562257994
 H          0.9155838499        1.5494778443        3.4060758157
 H         -0.4700918790       -0.3309440850        2.6101181659
 H         -0.7714632287       -2.0743032223        1.0442489137
 C          0.1070866010       -2.3088557512       -0.8921325633
 C          1.2968916430       -3.1433871463       -0.5252671717
 C         -0.0195210172       -3.7992820578       -0.8116938879
 H         -0.1311395296       -4.3554043240       -1.7304197274
 H         -0.5780369920       -4.2098468329        0.0165370682
 H          2.0945599802       -3.2487992593       -1.2442070590
 H          1.6336138742       -3.1019176601        0.4993659161
 H          0.0846166935       -1.8643126859       -1.8793799929
