  62
        -98.93652383
 C          2.4720826707        0.9820399259       -0.1955239410
 C          3.6388770183        0.8650736215        0.5950706055
 C          4.7028329165       -0.0035053662        0.0656669717
 C          4.5183628069       -0.6286623212       -1.1099506271
 C          5.4764044391       -1.5246345445       -1.8545623334
 C          6.2554136500       -2.5649609904       -1.0376311888
 C          5.5075828032       -3.1295680727        0.1789903832
 H          4.4558020146       -2.8408456955        0.1397521913
 H          5.5472113606       -4.2199009301        0.1448482635
 C          6.1115082531       -2.6803441104        1.5117959828
 H          7.1997621717       -2.7408609359        1.4410994053
 H          5.7959654822       -3.3763558177        2.2928027939
 C          5.7180186980       -1.2769822251        1.9714603997
 H          4.6664121948       -1.2662712841        2.2706760433
 H          6.3052279810       -1.0372913915        2.8612534912
 C          5.9177625393       -0.1595992527        0.9345873576
 H          6.0249746406        0.7845172010        1.4757132094
 H          6.8160336158       -0.3251320791        0.3448056229
 H          7.1991294857       -2.1349548133       -0.7048795064
 H          6.5052700439       -3.3786600568       -1.7205518640
 H          4.8646706887       -2.0313865832       -2.6046937953
 H          6.1855165020       -0.8894868565       -2.3933951947
 O          3.3740403057       -0.4893737034       -1.8377574228
 C          2.3264990864        0.3089359683       -1.4071331274
 O          1.3492437693        0.3350371955       -2.1787764228
 H         -1.1767317821        2.2217648126       -0.7981591159
 C         -1.1126353845        1.3587510669       -0.1540671194
 C          0.0855766132        1.0444506208        0.4652822292
 C          0.1296236580       -0.0731727877        1.2956526256
 C         -0.9895834596       -0.8597365479        1.4834886650
 C         -2.1803556186       -0.5520421651        0.8475222517
 C         -2.2399677094        0.5653787254        0.0278860932
 N         -3.4382183977        0.8810043248       -0.6291591441
 S         -4.8885388784        0.8163950537        0.2055576125
 O         -5.7745457456        1.7055697030       -0.5132051803
 O         -4.7047314187        1.0932551221        1.6111574176
 C         -5.4418999252       -0.8605130149       -0.0222198747
 C         -5.7617325019       -1.6371177762        1.0740273547
 C         -6.2000310717       -2.9363775602        0.8700645456
 C         -6.3115948295       -3.4325528899       -0.4196601528
 C         -5.9894108709       -2.6385159943       -1.5103117383
 C         -5.5512760702       -1.3389080218       -1.3131139988
 H         -5.2937080670       -0.6901406644       -2.1336557690
 H         -6.0770950904       -3.0277905017       -2.5119180615
 H         -6.6518158511       -4.4440504144       -0.5761279269
 H         -6.4514593686       -3.5552361613        1.7164043951
 H         -5.6555473222       -1.2110955961        2.0591580563
 H         -3.3845328024        1.6945413108       -1.2238237659
 H         -3.0561596931       -1.1644289746        0.9857518337
 H         -0.9367616875       -1.7241700436        2.1280702411
 H          1.0600576589       -0.3163875948        1.7908533331
 C          1.3388120522        1.8661311373        0.2923385213
 H          1.6522039242        2.2208822751        1.2853876430
 C          1.1722624399        3.0629997626       -0.6195902434
 C          0.5521443232        4.3246483599       -0.0993411828
 C          2.0217631815        4.2749706621       -0.3879792994
 H          2.3983032022        4.8122610847       -1.2454327889
 H          2.7077952366        4.2479499330        0.4458341401
 H         -0.0797359014        4.9009545052       -0.7586622067
 H          0.2371279116        4.3373352034        0.9332804452
 H          0.9765709414        2.7808105058       -1.6482858201
 O          3.7895041082        1.4661307308        1.6926163624
