  62
        -98.94386035
 C         -1.8698113417       -0.8459890676        0.2345905583
 C         -2.0754702941        0.2317430739        1.1258559020
 C         -2.2268602719        1.5554302651        0.5106805657
 C         -2.1177598514        1.6744748896       -0.8252217825
 C         -2.2797132113        2.9586695612       -1.5854448685
 C         -3.7358098448        3.1698649516       -2.0235112895
 C         -4.7519436814        2.9758808804       -0.8979452188
 H         -5.7410067055        3.1777988010       -1.3145892426
 H         -4.7406804329        1.9288745392       -0.5867067418
 C         -4.5197429816        3.8711481379        0.3271289867
 H         -5.4772972310        4.2938297405        0.6382464450
 H         -3.8689149177        4.7038719469        0.0585317552
 C         -3.9377098913        3.1453977598        1.5414451079
 H         -4.5338372351        2.2549648475        1.7558910578
 H         -4.0184143700        3.8101074729        2.4055581333
 C         -2.4673377695        2.7231468563        1.4263285029
 H         -1.8587906916        3.5786446115        1.1256012321
 H         -2.1361253658        2.3977384072        2.4169642829
 H         -3.8300007701        4.1772697343       -2.4330827441
 H         -3.9637937356        2.4564369221       -2.8188127668
 H         -1.9521577418        3.7866766859       -0.9596221992
 H         -1.6414209941        2.9125238542       -2.4697573127
 O         -1.8955371347        0.6196993952       -1.6496251647
 C         -1.7531000939       -0.6610090422       -1.1431552109
 O         -1.5436630909       -1.5362764297       -2.0070266129
 H          0.6155050302       -0.8914043684        0.7863992503
 C          0.7610343261       -1.8912870924        0.4065185791
 C         -0.3203291199       -2.7627488562        0.3533052716
 C         -0.1119664083       -4.0526945554       -0.1151880280
 C          1.1403526740       -4.4393732562       -0.5614261790
 C          2.1946738910       -3.5458858823       -0.5732368671
 C          2.0003319555       -2.2565845042       -0.0888159655
 N          3.0565182763       -1.3209578915       -0.0750645020
 S          2.8698045945        0.1905336626       -0.8067960024
 O          1.5550855528        0.7242498190       -0.5669735272
 O          3.2881062899        0.0895755722       -2.1919085544
 C          4.0823974168        1.1223621410        0.1083563157
 C          3.7487182599        1.5486567430        1.3791495360
 C          4.6891524389        2.2451102046        2.1211219323
 C          5.9418556229        2.5004681279        1.5827438485
 C          6.2617429615        2.0671769961        0.3052506325
 C          5.3250730372        1.3693499836       -0.4413850028
 H          5.5260512315        1.0206234439       -1.4413297395
 H          7.2353401012        2.2693749149       -0.1111657437
 H          6.6716447404        3.0423911680        2.1631953481
 H          4.4415857728        2.5847626665        3.1140451850
 H          2.7605105102        1.3334183724        1.7535558960
 H          3.9156039911       -1.7223368292       -0.4308102585
 H          3.1608339443       -3.8381555239       -0.9572673527
 H          1.2902521508       -5.4435656110       -0.9284033482
 H         -0.9317291706       -4.7517956355       -0.1461250643
 C         -1.6651577324       -2.2414496425        0.7967464316
 H         -1.6532838885       -2.1206474582        1.8904995409
 C         -2.8193442797       -3.1448817789        0.4162978142
 C         -3.2293613685       -4.2720956761        1.3152182633
 C         -4.0953311505       -3.0552074688        1.1968576413
 H         -5.0315720170       -3.1347104850        0.6650825644
 H         -4.1201467945       -2.3600641950        2.0233555173
 H         -2.6727644145       -4.4092216631        2.2298137092
 H         -3.5754475202       -5.1903385378        0.8652156087
 H         -2.8965525472       -3.2864635613       -0.6562579888
 O         -2.1226813473        0.0926130906        2.3796337463
