  62
        -98.94054132
 C          2.3685731131        0.7675245163       -0.1102825497
 C          3.5519863065        1.0639641306        0.6074351392
 C          4.7987993069        0.5649885225        0.0174899996
 C          4.7628289688       -0.1070149971       -1.1478246447
 C          5.9516050531       -0.6582933583       -1.8876707808
 C          6.4111645473       -2.0363533263       -1.3918320243
 C          7.1131864735       -2.0379105863       -0.0332863731
 H          7.5707448277       -3.0215128512        0.0897827825
 H          7.9185148893       -1.3028542878       -0.0409688084
 C          6.1838810679       -1.7736867506        1.1596346295
 H          5.1463157724       -1.9269398944        0.8535149111
 H          6.3933413313       -2.4957779100        1.9520775950
 C          6.3185011982       -0.3787792825        1.7705714156
 H          5.5912369196       -0.2876224854        2.5814582234
 H          7.3162731256       -0.2606275992        2.1988305452
 C          6.0715609297        0.7691619043        0.7827814438
 H          6.9152521720        0.8665135897        0.1001192665
 H          5.9715171296        1.6964751748        1.3520732680
 H          5.5445272334       -2.7004623371       -1.3554262960
 H          7.1046922726       -2.4351729244       -2.1356809164
 H          6.7806795166        0.0471532997       -1.8265259748
 H          5.6497710499       -0.7515760518       -2.9330393997
 O          3.6050157897       -0.3538615869       -1.8173198779
 C          2.3802915762        0.0548430216       -1.3090438321
 O          1.4018601045       -0.2677984603       -2.0094245634
 O          3.5644489974        1.7106123015        1.6893320374
 C          1.0370346143        1.2350778018        0.4463502948
 C          0.1237992136        0.0584363915        0.6870862150
 C          0.6077543379       -1.0334697425        1.4044950149
 C         -0.1969055638       -2.1270465644        1.6558234950
 C         -1.5080306598       -2.1500973850        1.2130437419
 C         -2.0020618670       -1.0656378852        0.4989558802
 C         -1.1867968249        0.0282864911        0.2397991124
 H         -1.5976652281        0.8532786533       -0.3171894135
 N         -3.3206929216       -1.0670289199        0.0179261083
 S         -4.1625738052        0.3938400185       -0.0516776070
 O         -3.8230520732        1.0769005545       -1.2743513960
 O         -3.9669916761        1.1373266789        1.1725081493
 C         -5.8387565289       -0.2091774367       -0.1453958004
 C         -6.3337059434       -0.6099838636       -1.3721304101
 C         -7.6251309359       -1.1076776244       -1.4430127691
 C         -8.3958546446       -1.1960885894       -0.2931393780
 C         -7.8865676479       -0.7877009034        0.9303685387
 C         -6.5952047483       -0.2902513821        1.0086243021
 H         -6.1606542853        0.0475503507        1.9356864130
 H         -8.4894648769       -0.8542508174        1.8216384864
 H         -9.4009487797       -1.5828882638       -0.3517556146
 H         -8.0255857137       -1.4230630706       -2.3929569291
 H         -5.7012812592       -0.5140422574       -2.2394196155
 H         -3.8844972906       -1.8090322873        0.4091248798
 H         -2.1386728829       -3.0033066111        1.4116419466
 H          0.1957984922       -2.9670630541        2.2090966569
 H          1.6291576125       -1.0111511297        1.7603502875
 H          1.2701963802        1.6883553915        1.4222364757
 C          0.4316667544        2.2970976452       -0.4465365149
 C         -0.5148713465        3.3102048779        0.1222386008
 C          0.8658710245        3.7222114076       -0.2890495071
 H          0.9819484951        4.3269264397       -1.1758423058
 H          1.5869788591        3.9374975654        0.4859086397
 H         -1.3541495784        3.6242436682       -0.4808554718
 H         -0.7383986502        3.2481392100        1.1769071087
 H          0.2462120706        1.9384848166       -1.4536421660
