  62
        -98.94009927
 C         -1.9827141653       -1.5426661495        0.1327049706
 C         -1.7779789240       -0.5268430402       -0.8287491234
 C         -2.7744015596        0.5644950082       -0.8598366945
 C         -3.7883599110        0.5458036934        0.0250287397
 C         -4.8724627110        1.5738419237        0.2005219038
 C         -4.3810441780        2.8272116610        0.9493014416
 C         -2.9714864901        3.2900461153        0.5852236418
 H         -2.6844568876        4.0693247344        1.2959067468
 H         -2.2787555643        2.4572913831        0.7218680145
 C         -2.8182332759        3.8650545246       -0.8213333962
 H         -3.4261682567        4.7694278432       -0.9015695736
 H         -1.7732681249        4.1594466923       -0.9495988346
 C         -3.2047014510        2.9349785308       -1.9713634709
 H         -2.8967989745        3.4226286695       -2.9013737453
 H         -4.2846981156        2.8261408324       -2.0243342489
 C         -2.5319056271        1.5638865831       -1.9657074843
 H         -1.4454309938        1.6968657923       -2.0125955590
 H         -2.7987345699        1.0515147226       -2.8989641457
 H         -4.3856149942        2.6004859960        2.0179455497
 H         -5.0907257733        3.6370580641        0.7738607503
 H         -5.2929981940        1.8326840661       -0.7670066798
 H         -5.6621452744        1.1040438639        0.7906043656
 O         -3.9277197387       -0.4393403985        0.9558173643
 C         -3.0499899019       -1.5002167978        1.0323881062
 O         -3.3168084873       -2.3297394209        1.9246089386
 O         -0.8126925883       -0.5150212210       -1.6381654184
 C         -1.0357182759       -2.7273400089        0.2457924142
 C          0.3151749801       -2.2150229868        0.6788907294
 C          0.5202208713       -1.8838619031        2.0157615287
 C          1.7225854574       -1.3452857082        2.4343083471
 C          2.7380000906       -1.1018604824        1.5249571044
 C          2.5335272395       -1.4113173648        0.1871843681
 C          1.3380888046       -1.9849969699       -0.2259558041
 H          1.1958885780       -2.2140307641       -1.2696222830
 N          3.5329717257       -1.1168708457       -0.7551058356
 S          4.3152910799        0.3542253561       -0.6201033844
 O          4.6819851894        0.7180768487       -1.9716953833
 O          5.4156023110        0.2263302941        0.3050363225
 C          3.1321047369        1.5209109205        0.0389273123
 C          1.8485373086        1.5644218504       -0.4683958598
 C          0.9583884408        2.4884723322        0.0544066285
 C          1.3592517274        3.3552498967        1.0584240124
 C          2.6536372433        3.3038186362        1.5512321341
 C          3.5473892344        2.3770088719        1.0398448872
 H          4.5591711028        2.2927540615        1.4024031358
 H          2.9667650063        3.9772808136        2.3327097327
 H          0.6567737966        4.0699778832        1.4574218294
 H         -0.0510540145        2.5158212338       -0.3234855255
 H          1.5326384011        0.8804834653       -1.2407624195
 H          3.2533325349       -1.2919992552       -1.7095057516
 H          3.6793247836       -0.6739267560        1.8307474367
 H          1.8700205464       -1.1032551949        3.4757121572
 H         -0.2833230105       -2.0465296821        2.7208772673
 H         -1.4379155665       -3.3563237793        1.0508034153
 C         -1.0068094262       -3.5356117187       -1.0347465810
 C         -0.4259112148       -4.9166678049       -1.0196760190
 C         -1.9050377795       -4.7267781113       -1.1677026342
 H         -2.3577837192       -4.9258868084       -2.1275898610
 H         -2.5398521525       -4.9701398811       -0.3281861194
 H          0.1380300245       -5.2506244356       -1.8773345615
 H         -0.0543195821       -5.2895353125       -0.0772161819
 H         -0.8583786663       -2.9319134161       -1.9216896935
