  62
        -98.94580167
 C         -1.6926336211       -1.4792018432       -0.4249737215
 C         -1.4991926697       -0.2361283844       -1.0762283466
 C         -2.6630963739        0.6613065781       -1.1001103029
 C         -3.8328674910        0.2685862891       -0.5668448688
 C         -5.1148077017        1.0566222746       -0.5537964232
 C         -5.2240941968        2.0599031281        0.6021066289
 C         -4.3243566253        3.2904534045        0.4810252675
 H         -4.4734128409        3.7552678538       -0.4940662681
 H         -4.6543402510        4.0057490992        1.2370541218
 C         -2.8311302542        3.0031687964        0.6931968833
 H         -2.4029994593        3.7515440216        1.3642588446
 H         -2.7087821629        2.0351518162        1.1855188621
 C         -1.9882197243        3.0129309861       -0.5822525813
 H         -1.9746965539        4.0209170849       -1.0042466854
 H         -0.9636788342        2.7488021522       -0.3053149553
 C         -2.4692471273        2.0362077228       -1.6637314116
 H         -3.3931293365        2.3994244773       -2.1143564219
 H         -1.7010261243        1.9760216648       -2.4384095156
 H         -5.0044829902        1.5407687890        1.5380058052
 H         -6.2623106003        2.3973886663        0.6441047207
 H         -5.2309669687        1.5805510845       -1.5029748434
 H         -5.9241314558        0.3297668554       -0.4555944816
 O         -3.9920421102       -0.9493659652        0.0161840151
 C         -2.9273353095       -1.8265865856        0.1325754077
 O         -3.2072815443       -2.8855742210        0.7309289801
 H          1.1786503172       -0.4554858099        0.0631210151
 C          1.0964947551       -1.0507306797        0.9563636358
 C          0.2330226158       -2.1381668875        0.9797201920
 C          0.1100535368       -2.8740999147        2.1528919428
 C          0.8317926449       -2.5251590946        3.2800152692
 C          1.6833135884       -1.4364962314        3.2570337954
 C          1.8128492264       -0.6903872157        2.0890012335
 N          2.6933160610        0.3948839821        2.0480288153
 S          2.4878741778        1.7136876030        1.0378018521
 O          3.2779664984        2.7513410608        1.6710848559
 O          1.0951485258        2.0229640862        0.8290478635
 C          3.3084289627        1.2200756817       -0.4619737173
 C          4.6721154609        1.0090031024       -0.3854243487
 C          5.3560322430        0.6157023585       -1.5230924590
 C          4.6674958906        0.4415660921       -2.7148310829
 C          3.3009244875        0.6621694516       -2.7750479801
 C          2.6090390403        1.0580458040       -1.6395448870
 H          1.5416939369        1.2154816904       -1.6548434121
 H          2.7610320899        0.5244878607       -3.6985552308
 H          5.1981868652        0.1322905095       -3.6016688704
 H          6.4195696395        0.4445123209       -1.4790668456
 H          5.1685200130        1.1656013446        0.5577593303
 H          3.1070997844        0.6501354237        2.9317178893
 H          2.2431130373       -1.1588886829        4.1373550389
 H          0.7261054292       -3.1024410100        4.1862269855
 H         -0.5736387997       -3.7102771281        2.1800046874
 C         -0.5864043371       -2.5078079539       -0.2351363642
 H         -1.0995635559       -3.4532281698       -0.0115553785
 C          0.2822286892       -2.7149366946       -1.4592295736
 C          1.1018059899       -3.9653567063       -1.5571352444
 C         -0.0874473735       -3.7762677021       -2.4493385863
 H          0.0768682545       -3.5807494206       -3.4982395011
 H         -0.9736970064       -4.3613038237       -2.2493584251
 H          2.0871817021       -3.9009758042       -1.9920533177
 H          1.0212000099       -4.6801245672       -0.7519624183
 H          0.7088115628       -1.8018472414       -1.8505392067
 O         -0.4310900135        0.1235751215       -1.6346557645
