  62
        -98.94682701
 C         -1.2567184730       -1.1933920077        0.0724310689
 C         -2.0438910833       -0.7122523281        1.1443853935
 C         -2.7079037949        0.5767638768        0.9197132971
 C         -2.5060082831        1.2382715492       -0.2346492298
 C         -3.1011421499        2.5701596042       -0.6037916827
 C         -4.5202494604        2.4798907252       -1.1821630443
 C         -5.6175211810        2.1501384928       -0.1694501487
 H         -5.5508815078        2.8372154747        0.6747904596
 H         -6.5742559379        2.3334272339       -0.6626393666
 C         -5.5959593604        0.7022280470        0.3400051121
 H         -4.9943991536        0.0871561133       -0.3331394927
 H         -6.6096447619        0.2954416723        0.3242141216
 C         -5.0659248742        0.5389249517        1.7645823665
 H         -5.7368687627        1.0407185721        2.4655103351
 H         -5.0615005529       -0.5266372651        2.0083748681
 C         -3.6454891916        1.0795471617        1.9757217750
 H         -3.6567247846        2.1691960086        1.9902079005
 H         -3.2827484746        0.7206562247        2.9423011937
 H         -4.5259201779        1.7340622842       -1.9801937760
 H         -4.7513840990        3.4487264067       -1.6308862635
 H         -3.1045254442        3.2260581677        0.2671646991
 H         -2.4493390935        3.0024871834       -1.3648990370
 O         -1.7007363354        0.7642324150       -1.2205989699
 C         -1.0655687746       -0.4629185676       -1.1015521456
 O         -0.3725976098       -0.7805379166       -2.0839637639
 H          0.8802075473       -0.7814428219        1.5961723350
 C          1.5121449914       -1.3337622218        0.9110668390
 C          0.9407940686       -2.3141938219        0.1079569853
 C          1.7633660442       -3.0178404635       -0.7604798004
 C          3.1160002815       -2.7289650320       -0.8345502580
 C          3.6776616405       -1.7442261268       -0.0431464032
 C          2.8646189108       -1.0448372635        0.8398457362
 N          3.4250040317       -0.0322602406        1.6508983566
 S          4.0363925594        1.2983781384        0.8357633075
 O          5.2068088007        0.8947216059        0.0997846380
 O          4.2346745705        2.3106121446        1.8484943115
 C          2.7450029131        1.7969556846       -0.2876497466
 C          1.7866516043        2.6845066759        0.1591427522
 C          0.7610949709        3.0496494410       -0.6972181643
 C          0.7067395677        2.5147722926       -1.9749773524
 C          1.6683376901        1.6138408593       -2.4036171607
 C          2.6991777106        1.2487281132       -1.5534147492
 H          3.4670385343        0.5544920861       -1.8532473393
 H          1.6085106576        1.1843532535       -3.3900692180
 H         -0.0945660281        2.7912705665       -2.6418476421
 H          0.0067070097        3.7447902910       -0.3639650159
 H          1.8694692909        3.0844341864        1.1574532413
 H          2.7901196859        0.2885144418        2.3690798032
 H          4.7243840055       -1.4936987011       -0.1034935374
 H          3.7414939285       -3.2779583517       -1.5219879270
 H          1.3453128229       -3.7856816416       -1.3900914638
 C         -0.5480032287       -2.5284036620        0.2170669932
 H         -0.7725814209       -2.8716919190        1.2378775564
 C         -1.0971058090       -3.5370570834       -0.7687137057
 C         -1.0308853482       -5.0024251613       -0.4616032321
 C         -2.3463214136       -4.2861200146       -0.4177122771
 H         -3.0679901446       -4.4805848260       -1.1969185466
 H         -2.7902136643       -4.0872252146        0.5469971567
 H         -0.8512712760       -5.6924505002       -1.2721005044
 H         -0.5829844544       -5.2970791265        0.4753671224
 H         -0.9762756400       -3.2220272197       -1.7988795891
 O         -2.1767802775       -1.3246269703        2.2392296471
