  62
        -98.94517529
 C         -2.4648466693       -1.2284255625       -0.0903848507
 C         -3.4349796202       -0.6873222177        0.7932637598
 C         -4.2038585647        0.4547579469        0.2902133904
 C         -3.9732728940        0.9171491697       -0.9517889681
 C         -4.6796503273        2.0686516534       -1.6138590704
 C         -4.0918699798        3.4417565706       -1.2600732806
 C         -4.3874808653        3.9291958055        0.1589906226
 H         -4.1094206945        4.9842445113        0.1984488042
 H         -5.4598222555        3.8672272597        0.3469108709
 C         -3.6253261604        3.1775997801        1.2595331180
 H         -3.2034556312        3.8965386306        1.9655377887
 H         -2.7844241443        2.6369779637        0.8174502353
 C         -4.4780282928        2.1979286650        2.0662749060
 H         -3.8295078852        1.6965291419        2.7889910952
 H         -5.2406507987        2.7482540366        2.6216202852
 C         -5.1706852040        1.1191691553        1.2232061562
 H         -5.5607233795        0.3540008017        1.8985829938
 H         -6.0010477377        1.5519130873        0.6660470624
 H         -4.5079502294        4.1658957144       -1.9644073051
 H         -3.0106767478        3.4098752821       -1.4169354930
 H         -4.5789349329        1.9181600533       -2.6908787860
 H         -5.7389107217        2.0470008972       -1.3565708864
 O         -3.0511547689        0.3580645187       -1.7780983016
 C         -2.2550436715       -0.7011419037       -1.3646042828
 O         -1.4337488611       -1.0714515007       -2.2275712669
 H          0.5450897545       -2.0228217960       -1.2156283240
 C          0.7371828810       -1.6772651212       -0.2117576051
 C         -0.2455343373       -1.8053423169        0.7587200762
 C          0.0107941218       -1.3126526006        2.0347721662
 C          1.2197860104       -0.7092751980        2.3285800892
 C          2.1926891229       -0.5723790999        1.3537762612
 C          1.9396503601       -1.0465982344        0.0739748241
 N          2.9123673765       -0.8790168108       -0.9318577519
 S          3.4324450821        0.6980482668       -1.2041540533
 O          2.4229955921        1.6648923038       -0.8359276626
 O          3.8802789663        0.7235131238       -2.5797926664
 C          4.8503756103        0.8583707362       -0.1373357729
 C          4.9017412194        1.8756068808        0.7953824157
 C          6.0192039536        1.9830961577        1.6089406969
 C          7.0598928298        1.0768397984        1.4753398917
 C          6.9938242982        0.0621065095        0.5319673080
 C          5.8804429537       -0.0499885383       -0.2852848172
 H          5.7901985362       -0.8198636664       -1.0331850874
 H          7.8050558021       -0.6406884448        0.4310665726
 H          7.9275214317        1.1620874552        2.1103304439
 H          6.0719288513        2.7714907991        2.3425413606
 H          4.0653585321        2.5527242519        0.8669470915
 H          2.6401227407       -1.3002763233       -1.8096226869
 H          3.1322054358       -0.0906444218        1.5705217642
 H          1.4051118225       -0.3351577016        3.3239596682
 H         -0.7597107125       -1.3900237088        2.7887902227
 C         -1.6062068939       -2.3703002568        0.4320603039
 H         -2.0803520535       -2.6790879483        1.3731408949
 C         -1.5618694610       -3.5611748934       -0.5014801165
 C         -1.0471387045       -4.8699167483        0.0165095268
 C         -2.5067974251       -4.7019942900       -0.2769955659
 H         -2.9220804217       -5.2020208046       -1.1391522280
 H         -3.1907433058       -4.6284991446        0.5557403113
 H         -0.7394330631       -4.9081659646        1.0504557642
 H         -0.4574774329       -5.4890675108       -0.6419351725
 H         -1.3414358175       -3.3010861462       -1.5289116790
 O         -3.6487492502       -1.1422323844        1.9477238184
