  62
        -98.93365516
 C          1.7778866698       -0.0060587995       -0.3750291976
 C          2.7559448407       -0.7392300078        0.3370508578
 C          4.1074525996       -0.1411606926        0.4209175190
 C          4.3270578241        1.0621338317       -0.1381580121
 C          5.6127701090        1.8429539819       -0.2043059951
 C          6.5914276087        1.2843858505       -1.2499013832
 C          6.7307828913       -0.2356715543       -1.2517106374
 H          5.7503093807       -0.6843164459       -1.4211993129
 H          7.3635861038       -0.5096776870       -2.1000746554
 C          7.3527765037       -0.8337564055        0.0078865854
 H          7.4747071002       -1.9055295067       -0.1686699520
 H          8.3475640345       -0.4066603424        0.1533404934
 C          6.5524147282       -0.6540009414        1.2996550404
 H          6.6670862086        0.3512607726        1.6960040534
 H          6.9815309337       -1.3310749534        2.0441256899
 C          5.0737069769       -1.0115798582        1.1887019206
 H          4.9795490467       -2.0166678793        0.7621658332
 H          4.6579912513       -1.0894914690        2.2004289507
 H          6.2374528802        1.5872922055       -2.2385131153
 H          7.5685283647        1.7423605324       -1.0870531161
 H          5.3446183902        2.8628027304       -0.4892653866
 H          6.0760658728        1.8851481363        0.7769082688
 O          3.3450308189        1.7460776322       -0.7944468674
 C          2.0698771627        1.2398242306       -0.9348969139
 O          1.2920360643        1.9770561744       -1.5754752701
 H         -1.9285793042        0.9760395922       -0.6305079592
 C         -1.6577366068        0.6762710186        0.3709066026
 C         -0.5109725477       -0.0735620431        0.5875261894
 C         -0.1655089236       -0.4122987441        1.8933876422
 C         -0.9490886784        0.0004709578        2.9541534106
 C         -2.0943841444        0.7466288318        2.7357475149
 C         -2.4477447314        1.0902440935        1.4363707173
 N         -3.5974603663        1.8519792365        1.1919910958
 S         -4.5030177123        1.6256411179       -0.1873806188
 O         -3.8675191156        2.2447086646       -1.3232528470
 O         -5.8116286605        2.1395391480        0.1579815540
 C         -4.6009962343       -0.1398032672       -0.4342727638
 C         -4.4424291490       -0.6451741650       -1.7085420206
 C         -4.5550536464       -2.0123436339       -1.9094183260
 C         -4.8154983475       -2.8483805609       -0.8350180762
 C         -4.9715223387       -2.3259124716        0.4394851820
 C         -4.8700991174       -0.9594161078        0.6443575011
 H         -4.9964867054       -0.5292773204        1.6242421650
 H         -5.1712255805       -2.9784587058        1.2739349396
 H         -4.8931061772       -3.9122843770       -0.9921005632
 H         -4.4316862339       -2.4183977343       -2.9006211815
 H         -4.2248530685        0.0390891155       -2.5134623524
 H         -4.1675317621        2.0523443982        1.9998822063
 H         -2.7045572606        1.0723846258        3.5643799507
 H         -0.6689417583       -0.2647746827        3.9623268138
 H          0.7230623046       -1.0011387032        2.0613294813
 C          0.3512947973       -0.4937142606       -0.5749872140
 H         -0.0121573938        0.0463555553       -1.4638564809
 C          0.2700203201       -1.9849511410       -0.8779887260
 C         -0.4661922675       -2.9650587673       -0.0185243568
 C         -1.0283994102       -2.5701667365       -1.3482718992
 H         -1.0116001666       -3.2861149786       -2.1557523370
 H         -1.8883785948       -1.9169008111       -1.3529278025
 H         -0.0355540180       -3.9481777114        0.0937468887
 H         -0.9577517487       -2.5998982235        0.8689792495
 H          1.1697041984       -2.3521365064       -1.3597060853
 O          2.5434097873       -1.8511411902        0.8849423045
