  62
        -98.94533228
 C          1.5586251678        1.0186900309        0.2949251680
 C          2.8813309824        1.1664133664        0.7819760149
 C          3.9546170103        0.7888594572       -0.1431115814
 C          3.6465532518        0.3366867310       -1.3721898168
 C          4.6285581234       -0.0762253232       -2.4348835977
 C          5.1260576369       -1.5214905500       -2.2953679230
 C          6.1006874860       -1.7657581430       -1.1424944861
 H          6.5339187537       -2.7564104348       -1.2942412481
 H          6.9148421409       -1.0424432289       -1.1975850268
 C          5.4588732263       -1.7165709605        0.2511973770
 H          4.3745967542       -1.8151601842        0.1569133359
 H          5.8057700329       -2.5676020643        0.8417570868
 C          5.7746448018       -0.4519182793        1.0500309663
 H          5.2414595334       -0.5067769508        2.0025083046
 H          6.8447427282       -0.4124177808        1.2651688314
 C          5.3674652675        0.8531469445        0.3535676844
 H          6.0501656901        1.0703255831       -0.4674837224
 H          5.4267311585        1.6639272343        1.0836887694
 H          4.2603973338       -2.1795896952       -2.1873265152
 H          5.6282465859       -1.7849112715       -3.2291915143
 H          4.1095306241        0.0178228684       -3.3911826515
 H          5.4799994378        0.6048937994       -2.4325965673
 O          2.3646693883        0.2192475407       -1.8077745680
 C          1.2898639309        0.5329333541       -0.9852342378
 O          0.1786573552        0.3544696452       -1.5179505053
 O          3.1514696274        1.5967101157        1.9350642540
 C          0.4095411927        1.3530428234        1.2324633031
 C         -0.2442628855        0.0604314748        1.6566445790
 C          0.4556764327       -0.8036836076        2.4962047832
 C         -0.0970756036       -2.0072940148        2.8873126718
 C         -1.3518141829       -2.3824037896        2.4363569090
 C         -2.0548571104       -1.5323884811        1.5931916726
 C         -1.5050588153       -0.3125728420        1.2214178025
 H         -2.0656983390        0.3396504380        0.5766934755
 N         -3.3383344855       -1.8672401821        1.1246136870
 S         -3.6123636516       -1.8101047390       -0.5358927751
 O         -4.7994283962       -2.6205877437       -0.7225629287
 O         -2.4440175672       -2.2280914424       -1.2741425298
 C         -4.0268796334       -0.1123249323       -0.8687721847
 C         -5.1901860059        0.3841269422       -0.3134060539
 C         -5.5356806396        1.7041278758       -0.5527991691
 C         -4.7177534407        2.4984828670       -1.3426905550
 C         -3.5560490244        1.9819500384       -1.8959472551
 C         -3.2013235714        0.6622030020       -1.6597713878
 H         -2.2869332325        0.2370719087       -2.0453121948
 H         -2.9151941553        2.5997114944       -2.5054041285
 H         -4.9843859504        3.5272391316       -1.5281492948
 H         -6.4371863711        2.1102747136       -0.1232877681
 H         -5.7986591562       -0.2705849105        0.2878314857
 H         -3.6977961473       -2.7340273206        1.5005199737
 H         -1.7816998921       -3.3274905089        2.7333012506
 H          0.4540168681       -2.6649976970        3.5428472104
 H          1.4411406259       -0.5157900950        2.8357983638
 H          0.8829922748        1.7973782022        2.1196197271
 C         -0.5494704417        2.3571675683        0.6310763663
 C         -1.5352147377        3.0595538788        1.5149778963
 C         -0.3786655885        3.8142620398        0.9335077619
 H         -0.5697884170        4.5281134265        0.1466598285
 H          0.4302883181        4.0969177707        1.5912338806
 H         -2.5244152472        3.2520842667        1.1281700168
 H         -1.5106052556        2.8283542446        2.5690400440
 H         -0.8678732509        2.0938413810       -0.3698893925
