  62
        -98.94850683
 C         -1.2485723562       -1.5172694006        0.4974649054
 C         -2.1566112880       -1.1679735068       -0.5309796599
 C         -3.1884836933       -0.1870097586       -0.1668541110
 C         -3.2201163827        0.3076449927        1.0836915196
 C         -4.1933622569        1.3391216097        1.5747841338
 C         -3.6321092713        2.7589755025        1.4196181862
 C         -3.0621477496        3.0572792872        0.0323807700
 H         -2.1558886968        2.4652975552       -0.1210667191
 H         -2.7479385551        4.1039598237        0.0321200844
 C         -4.0418412715        2.8192259598       -1.1252568563
 H         -3.9629271173        3.6566857469       -1.8218738877
 H         -5.0650543217        2.8069668617       -0.7468805859
 C         -3.7827563701        1.5456672490       -1.9327056141
 H         -2.7263528233        1.5021911045       -2.2121754794
 H         -4.3648968694        1.6051620460       -2.8564768691
 C         -4.1534933190        0.2277712625       -1.2406363947
 H         -4.1216077974       -0.5645183344       -1.9943756330
 H         -5.1705902829        0.2900396340       -0.8482854130
 H         -2.8304652260        2.8989695620        2.1487368315
 H         -4.4285369875        3.4704120639        1.6478461532
 H         -4.3887414829        1.1507361552        2.6321554354
 H         -5.1251127560        1.2435686073        1.0205944404
 O         -2.3350288474       -0.0560693387        2.0462897872
 C         -1.3079427556       -0.9432716310        1.7660978064
 O         -0.5244636805       -1.1410931048        2.7184750725
 O         -2.1080788652       -1.6472085980       -1.6941541465
 C         -0.1061743631       -2.4712123709        0.2053491882
 C          0.7930980104       -1.9060419093       -0.8696635631
 C          1.4878919527       -2.6993205277       -1.7750048781
 C          2.3185251510       -2.1187120305       -2.7180356319
 C          2.4907740038       -0.7468795424       -2.7707112484
 C          1.8024664196        0.0542917827       -1.8671866714
 C          0.9663443930       -0.5314004520       -0.9313128277
 H          0.4171343085        0.1041325129       -0.2550800152
 N          1.9304298058        1.4509790772       -1.8799154740
 S          1.8645158770        2.3068830211       -0.4455922640
 O          0.5164954863        2.3458216586        0.0619140691
 O          2.4526106120        3.5883497440       -0.7732463762
 C          2.9472298349        1.4180182217        0.6589532471
 C          4.3032043032        1.4834621384        0.3979447965
 C          5.1787678217        0.7679565946        1.1968061482
 C          4.6861218131       -0.0056765598        2.2374993471
 C          3.3247663360       -0.0570098119        2.4902862650
 C          2.4435041740        0.6612081069        1.6962891197
 H          1.3805586489        0.6304971538        1.8795132333
 H          2.9295419370       -0.6548960785        3.2963032714
 H          5.3654246137       -0.5690867160        2.8574840750
 H          6.2387897977        0.8120142380        1.0057550905
 H          4.6467748235        2.1054021595       -0.4126415097
 H          2.6293781937        1.8152649728       -2.5097913879
 H          3.1388222574       -0.2983838177       -3.5077450167
 H          2.8454662389       -2.7453953574       -3.4213168967
 H          1.3719975595       -3.7705060786       -1.7470290976
 H          0.4829602344       -2.5329323971        1.1333456420
 C         -0.6347728853       -3.8519979439       -0.1278151795
 C          0.1303942787       -5.0760877322        0.2742379685
 C         -1.1388443163       -4.7188465082        0.9856539629
 H         -2.0183638178       -5.3207831375        0.8135780009
 H         -1.0711598156       -4.3231942940        1.9889887827
 H          0.1208127472       -5.9297940313       -0.3866237405
 H          1.0607158045       -4.9352360245        0.8035579028
 H         -1.1812412231       -3.8710907459       -1.0634678258
