  62
        -98.93564456
 C          1.6966928003        0.4752822101       -0.3089397805
 C          2.7761419002        1.3195111400        0.0516296298
 C          4.1328028503        0.8283623099       -0.2450101698
 C          4.2757234003       -0.3814756001       -0.8124486898
 C          5.5592709004       -1.0913493102       -1.1437492594
 C          5.9797916800       -2.0191590302        0.0088485907
 C          6.8230649997       -1.3550921703        1.0967800010
 H          6.9387003994       -2.0803781704        1.9055458410
 H          7.8188640498       -1.1454604904        0.7004979413
 C          6.2448502496       -0.0611656803        1.6756515508
 H          5.1726517896       -0.1798740202        1.8421224005
 H          6.7067641494        0.1048275597        2.6508373210
 C          6.5034083600        1.1655060697        0.7882960009
 H          6.9444439199        1.9616542497        1.3916920211
 H          7.2426596702        0.9072510197        0.0302336911
 C          5.2581008002        1.7600276598        0.1143422906
 H          4.8017450701        2.4987364098        0.7808026604
 H          5.5647202505        2.3009672298       -0.7872945393
 H          5.0711597898       -2.4374374702        0.4497741604
 H          6.5545971800       -2.8510763203       -0.4032490191
 H          5.3581610306       -1.7025301502       -2.0261513895
 H          6.3436889405       -0.3791430303       -1.3821436192
 O          3.2134764604       -1.1748518800       -1.1188143101
 C          1.9048480303       -0.7834671099       -0.8738038805
 O          1.0570458203       -1.6355894698       -1.1969332307
 O          2.6127088501        2.4363946500        0.6117451098
 C          0.2937007802        0.9680674202       -0.0045392209
 C         -0.5217504101       -0.1181664797        0.6484370288
 C         -0.1182273105       -0.6032527598        1.8905519289
 C         -0.8293353807       -1.6021406697        2.5250296687
 C         -1.9760922006       -2.1209871196        1.9484849184
 C         -2.3882038502       -1.6429235796        0.7115993683
 C         -1.6609041299       -0.6503622996        0.0675199885
 H         -1.9780565096       -0.3342911996       -0.9113173616
 N         -3.5499422601       -2.1372994195        0.1023998779
 S         -4.5320631897       -1.1019596894       -0.7618446724
 O         -5.8465311398       -1.7045194393       -0.6864808928
 O         -4.0172602393       -0.8951035194       -2.0916985022
 C         -4.5119335199        0.4356751406        0.1459362377
 C         -4.8465195403        0.4156166806        1.4856293276
 C         -4.8151935704        1.6004583306        2.2025668176
 C         -4.4545324801        2.7809402006        1.5710663377
 C         -4.1320516397        2.7871036906        0.2231021578
 C         -4.1593013696        1.6037898606       -0.4979603422
 H         -3.9099701893        1.5620148106       -1.5464576521
 H         -3.8548508595        3.7068870705       -0.2672948421
 H         -4.4254767502        3.7020506306        2.1314030277
 H         -5.0686920407        1.5999046106        3.2503823275
 H         -5.1299756005       -0.5159382594        1.9474376275
 H         -4.0785093603       -2.7973683795        0.6526460477
 H         -2.5371119808       -2.8987539096        2.4437627682
 H         -0.4963918611       -1.9755581498        3.4817340588
 H          0.7733451194       -0.1930521699        2.3452111392
 H          0.4442713001        1.7689167702        0.7389915391
 C         -0.4148594994        1.6085924303       -1.1880420211
 C          0.3495086010        2.2848114602       -2.2851686109
 C         -0.3865041790        1.0094457803       -2.5609490711
 H         -1.2875062189        1.0454695004       -3.1570130614
 H          0.1824354209        0.1031599403       -2.6993674310
 H         -0.0418874588        3.2050274703       -2.6919604810
 H          1.4284092610        2.2505726901       -2.2406049606
 H         -1.3436900194        2.0836080103       -0.8866318714
