  62
        -98.93668545
 C         -2.0041425507       -1.4718272694        0.2031173097
 C         -1.7420328103       -0.2959673094       -0.5354894302
 C         -2.8855634700        0.6096583810       -0.7546818099
 C         -4.0974152501        0.2742657814       -0.2732815299
 C         -5.4417887399        0.9640517519       -0.3810352497
 C         -5.5442197294        2.4020933020       -0.8820869294
 C         -4.9577028490        3.4509938916        0.0633369407
 H         -4.9655730987        4.4159974217       -0.4477748392
 H         -5.6105452589        3.5319071517        0.9360689707
 C         -3.5467701690        3.1675118211        0.5725393105
 H         -3.2726823387        3.9715451109        1.2607448406
 H         -3.5446379393        2.2384925310        1.1460746804
 C         -2.4645459691        3.0891323209       -0.5019394396
 H         -1.5013599791        3.0086626504        0.0091985803
 H         -2.4592820489        4.0096853609       -1.0888417295
 C         -2.5734752697        1.8956017610       -1.4647105298
 H         -3.2946085597        2.0891086014       -2.2548763497
 H         -1.5980726797        1.7538621308       -1.9401018599
 H         -5.1043047695        2.4866611720       -1.8714729995
 H         -6.6104677694        2.6177239424       -0.9923952193
 H         -6.0477719802        0.3260854422       -1.0338931897
 H         -5.8923554298        0.8984274219        0.6144863004
 O         -4.3028359205       -0.8875823386        0.4161543200
 C         -3.2765000607       -1.7740077590        0.6836135397
 O         -3.6145078710       -2.7721601390        1.3507464896
 H          1.7663656689       -2.5803076006       -0.3036205508
 C          1.5915737692       -1.9027392507        0.5179694893
 C          0.3150272993       -1.7365908703        1.0330420294
 C          0.1402835497       -0.8508359604        2.0938086896
 C          1.2015770500       -0.1259185109        2.5997043496
 C          2.4661364099       -0.2656202313        2.0534947595
 C          2.6549272495       -1.1621786112        1.0128227393
 N          3.9528453894       -1.2579372615        0.4325730992
 S          4.1073484696       -0.2501878814       -0.9178101707
 O          3.2214699194       -0.6768406809       -1.9803289107
 O          5.5147994696       -0.2653162018       -1.2567091708
 C          3.6411755703        1.3471095787       -0.2964904604
 C          4.6250837806        2.1458710683        0.2533410996
 C          4.2738625611        3.3828238083        0.7685612698
 C          2.9500976612        3.7942692688        0.7271356000
 C          1.9764791909        2.9783443892        0.1719475100
 C          2.3174066504        1.7383752092       -0.3461332502
 H          1.5756604601        1.0805306395       -0.7739355503
 H          0.9460712810        3.2957465496        0.1406655701
 H          2.6736350516        4.7565184088        1.1287664002
 H          5.0290978313        4.0196266480        1.2003118199
 H          5.6396678805        1.7823690379        0.2576719895
 H          4.1653220991       -2.1989606316        0.1245545190
 H          3.3019620501        0.3062488284        2.4221183595
 H          1.0425431903        0.5616001990        3.4161682597
 H         -0.8526121502       -0.7262959802        2.5050613497
 C         -0.8857710310       -2.4607347198        0.4781177294
 H         -1.2667147812       -3.1507050698        1.2453246193
 C         -0.5855691114       -3.2525086598       -0.7786893907
 C         -0.0671146919       -4.6555272100       -0.6834792110
 C         -1.4733268218       -4.4046193694       -1.1366368808
 H         -1.7176637620       -4.5635174091       -2.1763205308
 H         -2.2818934018       -4.6335032792       -0.4577849208
 H          0.6537073679       -4.9901819601       -1.4148714511
 H          0.0802768481       -5.0687956402        0.3029982289
 H         -0.2261778512       -2.6281614498       -1.5905528507
 O         -0.6056955103       -0.0075878297       -0.9944882602
