  62
        -98.93394757
 C         -2.6278483356        0.1120154879        0.1408936460
 C         -2.3376450684        1.2080582282        0.9912195872
 C         -1.7425176975        2.3891161000        0.3570881394
 C         -1.5319275538        2.3923656656       -0.9708575780
 C         -0.9134438433        3.5039463860       -1.7736848555
 C          0.5849258242        3.7381215604       -1.4943413025
 C          0.8648514274        4.8558560567       -0.4818812502
 H          1.7313563099        5.4271980204       -0.8209736605
 H          0.0179020608        5.5435496289       -0.4754082275
 C          1.1633501534        4.4034825947        0.9510894902
 H          2.1943848777        4.0459757953        1.0052132557
 H          1.0806214002        5.2769610979        1.6022137289
 C          0.2737246992        3.2890058508        1.5039197623
 H          0.4575737529        3.2052010109        2.5778410032
 H          0.5760765590        2.3305050039        1.0711477093
 C         -1.2366181994        3.4800735494        1.2549349424
 H         -1.7818079661        3.3936387262        2.1972139835
 H         -1.4368534583        4.4608847357        0.8261487617
 H          1.0365418335        2.7997414958       -1.1685389806
 H          1.0498357453        4.0111187739       -2.4431031631
 H         -1.0444098737        3.2212451165       -2.8199235376
 H         -1.4706908264        4.4268034887       -1.5992657319
 O         -1.8811650993        1.3463176298       -1.7639906949
 C         -2.3475536742        0.1557825418       -1.2264701220
 O         -2.4826373956       -0.7526933168       -2.0678716084
 O         -2.5443699828        1.1873518318        2.2364746634
 C         -3.0017677702       -1.2048670791        0.8013772226
 C         -1.9863884456       -2.2414679625        0.3820426027
 C         -2.2948015034       -3.5211069793       -0.0544295131
 C         -1.2831944724       -4.3876232996       -0.4380872995
 C          0.0411812081       -3.9942757624       -0.4201073430
 C          0.3594017989       -2.7072289839        0.0066745997
 C         -0.6484461535       -1.8657662929        0.4373828178
 H         -0.3911363017       -0.8794890368        0.7969176663
 N          1.6841285578       -2.2410232783       -0.0443853904
 S          2.1018139044       -0.7045622428        0.4814385931
 O          1.9282285778       -0.5812542989        1.9138933228
 O          1.4297192737        0.2740885480       -0.3357420472
 C          3.8403523488       -0.7248541513        0.0899483993
 C          4.2267270211       -0.4760871556       -1.2133363591
 C          5.5742989507       -0.5203719191       -1.5334107033
 C          6.5084104187       -0.8117968144       -0.5502453193
 C          6.1063238694       -1.0566714082        0.7540696200
 C          4.7597139911       -1.0142317000        1.0802082953
 H          4.4005246691       -1.1873502553        2.0819074441
 H          6.8347373056       -1.2795197509        1.5168824725
 H          7.5565441687       -0.8454300679       -0.8021678606
 H          5.8900614980       -0.3271519201       -2.5459076035
 H          3.4646976058       -0.2463789006       -1.9402542898
 H          2.3896642200       -2.9377794466        0.1419132644
 H          0.8218484338       -4.6634425100       -0.7462624105
 H         -1.5350605387       -5.3824694437       -0.7731592571
 H         -3.3237415450       -3.8362445677       -0.1129877779
 H         -2.8517950685       -1.0115139773        1.8784732621
 C         -4.4473181885       -1.6474586008        0.6462816055
 C         -5.5221943297       -0.6647226771        0.2919265504
 C         -5.1320991496       -1.7321805610       -0.6836178433
 H         -5.8216654925       -2.5469973020       -0.8500611066
 H         -4.5617861073       -1.4505610010       -1.5538989950
 H         -6.4753701199       -0.7421629667        0.7933499967
 H         -5.2171983900        0.3507623507        0.0828573665
 H         -4.7174404653       -2.4036027684        1.3775359014
