  62
        -98.94037763
 C          2.1632788615        0.6466608970        0.1949093920
 C          2.9938843396       -0.0446131365        1.1130814685
 C          3.8826331697       -1.0621291850        0.5414378963
 C          3.8149290138       -1.3417739718       -0.7725340910
 C          4.6443828683       -2.3611359822       -1.5049775173
 C          6.0267228454       -1.8473250982       -1.9309687416
 C          7.0364347996       -1.6751969513       -0.7953058040
 H          7.0896657486       -2.5967672952       -0.2148095989
 H          8.0142630635       -1.5240111997       -1.2567539308
 C          6.7448693280       -0.4924802935        0.1390025044
 H          7.6654344004        0.0682775328        0.3157147944
 H          6.0436661284        0.1905018129       -0.3464896733
 C          6.1860645358       -0.8871887220        1.5062784465
 H          5.9819156600        0.0265903353        2.0706432447
 H          6.9347055726       -1.4614591612        2.0564232647
 C          4.8897638990       -1.7059657867        1.4455833388
 H          5.1017177641       -2.7234003522        1.1174526085
 H          4.4595413073       -1.7438229732        2.4495786007
 H          5.9000282918       -0.8961231661       -2.4531229255
 H          6.4350410857       -2.5662565964       -2.6449261379
 H          4.0845849088       -2.6298773501       -2.4033696591
 H          4.7602673634       -3.2525436572       -0.8877298877
 O          2.9377306325       -0.7224708616       -1.6048024839
 C          2.1055204278        0.2973248060       -1.1553412954
 O          1.3788030697        0.7788399324       -2.0427956821
 O          2.9880852310        0.1755910822        2.3542398804
 C          1.2727043371        1.7456252553        0.7440360631
 C         -0.1399802324        1.5903702077        0.2389290137
 C         -0.8349049427        2.5875954717       -0.4311856264
 C         -2.1386950998        2.3761204506       -0.8455784447
 C         -2.7758686302        1.1739998361       -0.6030687200
 C         -2.0910405858        0.1688668064        0.0677621805
 C         -0.7892801241        0.3864398404        0.4881905165
 H         -0.2566795775       -0.3985548365        1.0133394835
 N         -2.7352219452       -1.0616517149        0.3106108488
 S         -4.1388137562       -1.0048050083        1.2367861434
 O         -4.1045311590        0.0946975363        2.1743446234
 O         -4.2732665790       -2.3285513530        1.8053147267
 C         -5.4353432698       -0.7477035484        0.0448764550
 C         -6.2400294084        0.3710981401        0.1362483344
 C         -7.2468888323        0.5498092292       -0.7996516362
 C         -7.4302125828       -0.3885346943       -1.8038341577
 C         -6.6150991484       -1.5083425592       -1.8795797492
 C         -5.6074716048       -1.6937974887       -0.9465206333
 H         -4.9549987410       -2.5508420582       -0.9667498726
 H         -6.7609137448       -2.2357760679       -2.6618447255
 H         -8.2131636789       -0.2466314523       -2.5319831652
 H         -7.8817874160        1.4192883583       -0.7423659346
 H         -6.0554115763        1.0758883103        0.9310554221
 H         -2.1153153751       -1.7696796652        0.6780069667
 H         -3.7872915259        1.0031087784       -0.9336585807
 H         -2.6638632907        3.1586446879       -1.3716229618
 H         -0.3506505025        3.5254449002       -0.6472295748
 H          1.2562045230        1.5613642983        1.8323806626
 C          1.8325297878        3.1482040961        0.5559598004
 C          3.3065153735        3.3798902821        0.4135877756
 C          2.3951602021        3.6177096733       -0.7509719535
 H          2.2075743687        4.6378901751       -1.0524721270
 H          2.4073484427        2.9152694831       -1.5693008456
 H          3.7418539361        4.2326722628        0.9126169298
 H          3.9506823119        2.5126339861        0.3912973170
 H          1.2893496838        3.8815585819        1.1442229336
