  62
        -98.94025684
 C          1.7698189898        1.1514805000       -0.2385864602
 C          3.1167751298        1.3692225501        0.1313674697
 C          4.0866668898        0.3441413600       -0.2924550502
 C          3.6508352397       -0.7140349201       -0.9981892699
 C          4.4560604897       -1.8903144902       -1.4769370197
 C          4.3905899298       -3.0431844100       -0.4606302895
 C          5.4432965199       -2.9872756397        0.6457699005
 H          5.2044972100       -3.7770244496        1.3618050306
 H          6.4229810299       -3.2160452798        0.2210348304
 C          5.5348641999       -1.6555847396        1.3954144802
 H          4.5310442499       -1.2831567295        1.6075996401
 H          6.0188259400       -1.8444270893        2.3556654802
 C          6.3381745298       -0.5889465997        0.6362241099
 H          6.8727407798       -1.0637243099       -0.1862994401
 H          7.0990558699       -0.1700008096        1.2980824397
 C          5.5165110198        0.5942725602        0.1031613897
 H          5.4586280698        1.3721116903        0.8711836795
 H          6.0415577497        1.0381023000       -0.7494078305
 H          3.3911415299       -3.0427943099       -0.0182381994
 H          4.5116961698       -3.9879193201       -0.9944199593
 H          3.9960160697       -2.2223438804       -2.4100134696
 H          5.4828791897       -1.5995723802       -1.6774118198
 O          2.3429047397       -0.8824726202       -1.3370879598
 C          1.3728737697        0.0332979598       -0.9695657799
 O          0.2224547597       -0.2578567803       -1.3461677298
 H         -2.0308427303        2.0180841499       -0.2093078501
 C         -1.6861281302        1.5213957501        0.6814934099
 C         -0.3403501402        1.5008147202        1.0103552099
 C          0.0522753599        0.8396538505        2.1727091000
 C         -0.8756531400        0.2084650507        2.9769301302
 C         -2.2173482700        0.2156448705        2.6348283703
 C         -2.6207975901        0.8753383603        1.4814202801
 N         -3.9812501402        0.9239902002        1.1212173402
 S         -4.4656926802        0.3486829598       -0.3755614196
 O         -3.8228669903        1.0973114996       -1.4228095698
 O         -5.9110641302        0.4135077398       -0.3381418395
 C         -3.9525923202       -1.3598785701       -0.3869958493
 C         -4.8851311702       -2.3264898901       -0.0604840090
 C         -4.4883653901       -3.6521211201       -0.0027507087
 C         -3.1673052901       -3.9870243401       -0.2606333988
 C         -2.2446174202       -3.0040621602       -0.5818587690
 C         -2.6340582102       -1.6744144702       -0.6469414793
 H         -1.9246251902       -0.9022985802       -0.9004284495
 H         -1.2147761302       -3.2523675002       -0.7851948890
 H         -2.8546598001       -5.0184076301       -0.2132312485
 H         -5.2061273201       -4.4177722400        0.2442941215
 H         -5.9013473402       -2.0196960301        0.1281127010
 H         -4.6000158401        0.5544399003        1.8300212003
 H         -2.9456227100       -0.2808050593        3.2582127504
 H         -0.5542749699       -0.2978849591        3.8745061603
 H          1.1016058199        0.8302780506        2.4350358999
 C          0.7186311998        2.1681927601        0.1687481996
 H          1.2474150898        2.8984598002        0.7990982494
 C          0.1714803897        2.8853596598       -1.0467562305
 C         -0.4022303404        4.2627412298       -0.9083336507
 C          0.9163556296        4.0650390097       -1.5923272008
 H          0.9678305495        4.1920348795       -2.6633405308
 H          1.8135693996        4.3686618998       -1.0727348109
 H         -1.2608706004        4.5237135097       -1.5087429907
 H         -0.4016235203        4.7073160700        0.0754549192
 H         -0.2895607804        2.2133448196       -1.7627975403
 O          3.4926598398        2.3713579003        0.7978998194
