  62
        -98.94790670
 C         -1.0010823888       -1.6162285908        0.4810837275
 C         -1.7522324064       -1.2613023981       -0.6661201579
 C         -2.8292335426       -0.2833367068       -0.4491423217
 C         -3.0474556518        0.1967542917        0.7881144776
 C         -4.1247303252        1.1754026516        1.1563400140
 C         -3.6319874019        2.6267743907        1.1046130329
 C         -2.9142348971        2.9965269366       -0.1934385337
 H         -2.6798595138        4.0627941759       -0.1428816684
 H         -1.9587881287        2.4705693052       -0.2536658800
 C         -3.7155251515        2.7129382648       -1.4712367848
 H         -4.7770368358        2.6197207466       -1.2360796911
 H         -3.6043717550        3.5660264871       -2.1439601204
 C         -3.2491621126        1.4768677293       -2.2439629257
 H         -2.1603447434        1.5075825759       -2.3430493477
 H         -3.6737358892        1.5237617415       -3.2508518418
 C         -3.6457632809        0.1216093208       -1.6429374264
 H         -4.7119260488        0.1225418292       -1.4034438754
 H         -3.4647126530       -0.6457767098       -2.4015747856
 H         -4.4927729549        3.2844093792        1.2432238454
 H         -2.9426506503        2.7921986430        1.9360657289
 H         -4.9665354127        1.0447486850        0.4788396381
 H         -4.4520940813        0.9510593320        2.1735932628
 O         -2.2952012335       -0.1558986721        1.8624177120
 C         -1.2475521188       -1.0563537030        1.7332446600
 O         -0.6260723761       -1.2746704946        2.7930114170
 H          0.7197590956       -0.0904888557       -0.3138743363
 C          1.3803150801       -0.7899664926       -0.7996968080
 C          1.2003190574       -2.1490230605       -0.5912942143
 C          2.0451535578       -3.0362310625       -1.2491825338
 C          3.0301365171       -2.5638339428       -2.0987232272
 C          3.1982454129       -1.2073733007       -2.3105082648
 C          2.3567369788       -0.3120477720       -1.6590875909
 N          2.4768393720        1.0639006569       -1.8649411222
 S          1.7243230708        2.2098803430       -0.9304855872
 O          0.2923231906        2.1211356219       -1.0625454928
 O          2.3250638684        3.4543546853       -1.3621194394
 C          2.2196046369        1.8674718373        0.7478245633
 C          1.2667957394        1.6034304816        1.7096960048
 C          1.6741962309        1.3134323343        3.0017427613
 C          3.0256313454        1.3012701800        3.3093284201
 C          3.9727545263        1.5829602472        2.3360306183
 C          3.5690080318        1.8663389568        1.0417533567
 H          4.2765828183        2.0937748985        0.2614232315
 H          5.0223980123        1.5767691300        2.5820141385
 H          3.3392757018        1.0700163248        4.3150169722
 H          0.9325524546        1.0771829096        3.7482555310
 H          0.2221188268        1.6143372913        1.4365415049
 H          3.2816166399        1.3895574922       -2.3746892978
 H          3.9609905797       -0.8423381552       -2.9805351341
 H          3.6772591677       -3.2631597810       -2.6059700949
 H          1.9268799727       -4.0971533362       -1.0998717543
 C          0.1342894473       -2.6150867049        0.3728259786
 H          0.5883312863       -2.6664306396        1.3745359857
 C         -0.4100842084       -3.9861166070        0.0168336592
 C          0.1940607934       -5.2256652430        0.6032752382
 C         -1.1537883732       -4.7600448749        1.0625491663
 H         -2.0272796484       -5.3212675445        0.7664800170
 H         -1.2346578977       -4.3120462515        2.0426204437
 H          1.0240148261       -5.1071654700        1.2835577959
 H          0.2451358226       -6.1131766814       -0.0094970766
 H         -0.7867962020       -4.0297518616       -0.9986507526
 O         -1.5464709307       -1.7472794864       -1.8092034989
