  62
        -98.93748331
 C         -2.0246323411       -0.8536204192        0.4828701663
 C         -2.0295901159       -0.1389969344       -0.7373851869
 C         -2.1668105797        1.3238957834       -0.6365737725
 C         -2.2502143156        1.8913210866        0.5788201042
 C         -2.4249639582        3.3507731042        0.8968881029
 C         -3.9138682810        3.7011192445        1.0605871335
 C         -4.6338511874        4.0734757384       -0.2348914589
 H         -5.6960769220        4.1701471375        0.0006772409
 H         -4.2817485606        5.0506724249       -0.5715362167
 C         -4.4733931046        3.0736550676       -1.3829873220
 H         -5.2941701499        3.2348543863       -2.0843662458
 H         -4.5684368793        2.0557994865       -1.0005824665
 C         -3.1422140451        3.2250761140       -2.1342673913
 H         -3.3381880844        3.2950208453       -3.2061732470
 H         -2.6735472981        4.1649128084       -1.8430978221
 C         -2.1460176577        2.0717503314       -1.9414832197
 H         -2.3236188102        1.3040303387       -2.7014644558
 H         -1.1276019721        2.4411938675       -2.1044556829
 H         -4.0011083046        4.5427421347        1.7506663401
 H         -4.4087563356        2.8444614627        1.5252937540
 H         -1.9169099075        3.5222601809        1.8484572839
 H         -1.9541636686        3.9661122752        0.1359147307
 O         -2.2397101321        1.1650469742        1.7319563876
 C         -2.1084370727       -0.2107356647        1.7153524153
 O         -2.0864491268       -0.7422598265        2.8466883499
 H          0.4358922177       -0.9061088507        0.5055976386
 C          0.5634082718       -1.8183613487       -0.0590533433
 C         -0.5022695879       -2.6992255976       -0.1877577409
 C         -0.3050189231       -3.8762351815       -0.8991218392
 C          0.9252851577       -4.1484772946       -1.4728496570
 C          1.9754744820       -3.2566571201       -1.3617680939
 C          1.7857042435       -2.0715496601       -0.6573507770
 N          2.8113997883       -1.1153574080       -0.5836233105
 S          2.7376722886        0.1710094986        0.4939543269
 O          2.6467231828       -0.3080267575        1.8572989453
 O          1.7135021761        1.0904379943        0.0645200808
 C          4.3454359994        0.8875096953        0.2094690080
 C          4.5142602197        1.7205830261       -0.8803199449
 C          5.7676920189        2.2582307080       -1.1255528578
 C          6.8263584746        1.9549517710       -0.2821502277
 C          6.6414774580        1.1198331225        0.8093230555
 C          5.3901800583        0.5784212535        1.0597188566
 H          5.1959137569       -0.0670144268        1.9012093344
 H          7.4649481034        0.8889936133        1.4656280777
 H          7.8007660526        2.3749473831       -0.4752156994
 H          5.9136290548        2.9104887595       -1.9713966921
 H          3.6592917966        1.9335449173       -1.5009427017
 H          3.7411271951       -1.4980312348       -0.6775687553
 H          2.9286527622       -3.4643025845       -1.8225541277
 H          1.0663030251       -5.0684174762       -2.0196500244
 H         -1.1155613558       -4.5788365029       -1.0050850347
 C         -1.8152058115       -2.3553162646        0.4778632406
 H         -1.7485510727       -2.6564527237        1.5350343902
 C         -3.0005986343       -3.0556874889       -0.1568300635
 C         -3.4500134219       -4.3964149870        0.3389368339
 C         -4.2709284097       -3.1770176334        0.6284101277
 H         -5.2108308910       -3.0492442876        0.1129809668
 H         -4.2671483439       -2.7827332026        1.6346897401
 H         -3.8313223649       -5.1089063063       -0.3770042742
 H         -2.9005664708       -4.8386544901        1.1564295665
 H         -3.0845075688       -2.8440802490       -1.2165200427
 O         -1.9261380692       -0.6957732679       -1.8627589456
