  62
        -98.94378643
 C         -1.6440482920       -1.4209955292        0.3977206403
 C         -1.7854176347       -0.1838861141        1.0816978721
 C         -3.0635831753        0.5141262721        0.9112580578
 C         -4.0374875343       -0.0530963791        0.1773397298
 C         -5.4156419863        0.5054538623       -0.0528329646
 C         -5.4968965836        1.5210269217       -1.2006186646
 C         -4.8632874796        2.8818368957       -0.9093741732
 H         -5.1796255451        3.5591521518       -1.7051735061
 H         -5.2609464245        3.2729768111        0.0276211811
 C         -3.3293265393        2.8646502400       -0.8549604388
 H         -2.9359440002        3.7035533284       -1.4330522520
 H         -2.9584422909        1.9511764454       -1.3257083113
 C         -2.7400615398        2.9683392276        0.5518696348
 H         -1.6537110616        2.8936867573        0.4676223223
 H         -2.9850141078        3.9421942481        0.9815495071
 C         -3.2135723952        1.8756693675        1.5192529092
 H         -2.5877516705        1.9106312490        2.4143752520
 H         -4.2489467388        2.0512720778        1.8108846295
 H         -5.0310841527        1.0841311298       -2.0869880706
 H         -6.5550995782        1.6759188536       -1.4238025693
 H         -5.7828398686        0.9632005199        0.8662859414
 H         -6.0573516337       -0.3435749600       -0.2984410202
 O         -3.8763733042       -1.2513203187       -0.4396429306
 C         -2.6742149209       -1.9456506436       -0.3834201859
 O         -2.6815223919       -2.9917127582       -1.0623206565
 O         -0.8848489909        0.3082686777        1.8113309174
 C         -0.3112286069       -2.1294328603        0.5623152780
 C          0.6398643103       -1.8087803880       -0.5665247225
 C          0.3015366785       -2.0540602572       -1.8931571108
 C          1.1989014145       -1.7687250549       -2.9056756368
 C          2.4427493254       -1.2342686463       -2.6185439373
 C          2.7936122530       -0.9920254230       -1.2952982294
 C          1.8898493552       -1.2794054281       -0.2809522107
 H          2.1762365037       -1.0949877953        0.7425142385
 N          4.0600424234       -0.4862203191       -0.9793846879
 S          4.3299913995        0.4835524537        0.3508239330
 O          5.6286846511        1.0681880092        0.0963133825
 O          4.2123058140       -0.2896358091        1.5612932440
 C          3.0822151014        1.7549935742        0.2899644549
 C          2.1126438297        1.8274710016        1.2673952144
 C          1.1594791176        2.8306139583        1.1944299242
 C          1.1899514665        3.7364071387        0.1463076957
 C          2.1727987759        3.6520061400       -0.8292212652
 C          3.1293762955        2.6536008783       -0.7588826466
 H          3.9177263094        2.5687226157       -1.4891061823
 H          2.1942388781        4.3613514661       -1.6409392295
 H          0.4454668936        4.5155516612        0.0910618045
 H          0.3930083838        2.8795397776        1.9510036390
 H          2.1050308552        1.1054840204        2.0674712433
 H          4.6285686375       -0.2206679956       -1.7691475471
 H          3.1416724114       -1.0149844683       -3.4110175041
 H          0.9260719797       -1.9632578156       -3.9319789062
 H         -0.6673505527       -2.4719288869       -2.1199702475
 H          0.1228035112       -1.7152134809        1.4831028912
 C         -0.4267251342       -3.6325518115        0.7278971890
 C          0.7014454372       -4.3771356977        1.3738526710
 C         -0.6002519600       -4.2110391971        2.0983330747
 H         -1.2411119056       -5.0719037792        2.2160390170
 H         -0.6354866150       -3.5240427911        2.9315158284
 H          0.9572150836       -5.3542470663        0.9937123161
 H          1.5507834914       -3.8038347381        1.7154722983
 H         -0.9492730592       -4.1166700467       -0.0865981186
