  62
        -98.93751267
 C         -1.6432387083       -1.6691759805       -0.5398024046
 C         -1.5118034366       -0.4123400853       -1.1736917900
 C         -2.5122126143        0.6173614984       -0.8234515005
 C         -3.4390019884        0.3521140778        0.1138757202
 C         -4.5876199940        1.1765825219        0.6582268074
 C         -4.7340525300        2.6497954038        0.2902204938
 C         -3.6836320052        3.5667438901        0.9178410754
 H         -3.7919817660        4.5632784882        0.4841499369
 H         -3.8903386217        3.6456565230        1.9882292959
 C         -2.2333715300        3.1147020778        0.7663004098
 H         -2.0839928048        2.1475003993        1.2511936023
 H         -1.5990996554        3.8290050279        1.2996611524
 C         -1.7180566840        3.0244230102       -0.6672841413
 H         -1.8441163248        3.9870902969       -1.1680207237
 H         -0.6469355921        2.8129101672       -0.6049813292
 C         -2.3664124059        1.9336738286       -1.5342086887
 H         -3.3250274123        2.2650321141       -1.9266647704
 H         -1.7080145557        1.7485191623       -2.3883053457
 H         -5.7121523617        2.9689594891        0.6604565435
 H         -4.7531955686        2.7662904003       -0.7893907207
 H         -5.4971716349        0.6486336316        0.3503582395
 H         -4.5332452561        1.0829487916        1.7478620908
 O         -3.4950741320       -0.8613828474        0.7405361743
 C         -2.6150066635       -1.8817335114        0.4388739319
 O         -2.8018648978       -2.9281643587        1.0941468200
 H          0.8533500071       -0.7560764876       -0.1512030505
 C          1.1103796515       -1.6266770382        0.4255618254
 C          0.4173091691       -2.8103383466        0.2151795286
 C          0.7601297594       -3.9292961943        0.9632819117
 C          1.7633480266       -3.8528746140        1.9139976202
 C          2.4204969582       -2.6594690542        2.1510080605
 C          2.0852848494       -1.5328259171        1.4054927871
 N          2.7328020957       -0.3110923161        1.6250983220
 S          1.9584702620        1.1745494782        1.4771007836
 O          2.4846414698        1.9628042058        2.5745680186
 O          0.5255477320        1.0297258697        1.4303105965
 C          2.6268645723        1.8265967842       -0.0417092739
 C          3.8319142836        2.4997497288        0.0456851945
 C          4.4112390663        3.0039144297       -1.1062009136
 C          3.7794778095        2.8274390663       -2.3282647732
 C          2.5727715530        2.1507315505       -2.4005107807
 C          1.9872166206        1.6417854431       -1.2502886541
 H          1.0491044110        1.1105388965       -1.3039763645
 H          2.0742658997        2.0076057400       -3.3459037338
 H          4.2277586401        3.2193013395       -3.2277078962
 H          5.3497745980        3.5313200493       -1.0483522373
 H          4.2802706950        2.6257292467        1.0173039150
 H          3.3700313619       -0.3078593276        2.4076096077
 H          3.1827487452       -2.5940157480        2.9127526890
 H          2.0224885166       -4.7269496948        2.4922575034
 H          0.2210923666       -4.8534325471        0.8139036510
 C         -0.7094788645       -2.8453583748       -0.7860139132
 H         -1.3113771725       -3.7434670678       -0.5707100980
 C         -0.2305263396       -2.9554477779       -2.2260277623
 C          1.1669605612       -2.6405957461       -2.6579905240
 C          0.7025700337       -4.0635607221       -2.6167983532
 H          0.5287139263       -4.5817865146       -3.5475951467
 H          1.0861246384       -4.6902143384       -1.8256263728
 H          1.8705268942       -2.3110126821       -1.9095724847
 H          1.2953620059       -2.1606232504       -3.6158002554
 H         -1.0177073064       -2.7104974751       -2.9314191028
 O         -0.6180664498       -0.1378748839       -2.0155301108
