  62
        -98.93760007
 C         -2.5682495357       -1.1178835748        0.3932814491
 C         -3.3901376954       -0.7648297017       -0.7062251580
 C         -4.6389066458       -0.0591964193       -0.3698637325
 C         -4.9250493274        0.2149624051        0.9148281176
 C         -6.1380076640        0.9626353180        1.3861892518
 C         -5.8638521225        2.4697911082        1.4818794997
 C         -5.2110790795        3.0582110301        0.2311940641
 H         -5.0941354456        4.1309527382        0.3994575026
 H         -4.2081659999        2.6389030769        0.1224176607
 C         -6.0003927875        2.8267786692       -1.0649031732
 H         -6.0245963373        3.7601245054       -1.6313127827
 H         -7.0324711283        2.5649894980       -0.8287723004
 C         -5.4058979808        1.7612960586       -1.9877301873
 H         -4.3453757723        1.9686254304       -2.1504395336
 H         -5.9059780059        1.8342727722       -2.9571864273
 C         -5.5459159000        0.3103253534       -1.5102604985
 H         -6.5877307704        0.1058119991       -1.2550190278
 H         -5.2612155842       -0.3410851510       -2.3417777716
 H         -6.8087358025        2.9804225163        1.6767957466
 H         -5.1997929025        2.6476546677        2.3309037253
 H         -6.9616761481        0.7756159586        0.6998451505
 H         -6.4089514885        0.5878945743        2.3747451008
 O         -4.1060596185       -0.1284477646        1.9422454430
 C         -2.9178901781       -0.7959884309        1.7076712006
 O         -2.2661387323       -1.0567299200        2.7401556542
 O         -3.1190089169       -1.0177241094       -1.9069407538
 C         -1.2657708711       -1.8870113292        0.2437092850
 C         -0.1025078065       -0.9683072398       -0.0262053438
 C         -0.1296509542       -0.0425470271       -1.0644412358
 C          0.9654273824        0.7659787885       -1.3105085448
 C          2.1046499239        0.6717062451       -0.5298596890
 C          2.1391388288       -0.2425836352        0.5137169162
 C          1.0388090492       -1.0534930807        0.7579004429
 H          1.0680103707       -1.7598782196        1.5774745576
 N          3.2976938939       -0.3375898527        1.3096296884
 S          4.7188390416       -0.7683560860        0.5159958853
 O          4.4385720515       -1.5693711170       -0.6532514927
 O          5.5507616122       -1.3777866254        1.5302491717
 C          5.4350246691        0.7874207782        0.0333875742
 C          5.6552741641        1.0565676092       -1.3031906261
 C          6.2267997857        2.2690822148       -1.6565866423
 C          6.5665553894        3.1847412087       -0.6723680952
 C          6.3395529002        2.8982502368        0.6657887864
 C          5.7692829509        1.6878026508        1.0260095438
 H          5.5815250370        1.4235460975        2.0533948301
 H          6.6052852974        3.6131300170        1.4278756289
 H          7.0115229381        4.1273174398       -0.9498116175
 H          6.4040082971        2.4937033991       -2.6961300159
 H          5.3719305688        0.3151575427       -2.0331712822
 H          3.1737884629       -0.9181779954        2.1273900589
 H          2.9599303740        1.3000573369       -0.7186649029
 H          0.9324039844        1.4775083413       -2.1216317653
 H         -1.0134584407        0.0257415359       -1.6804618747
 H         -1.0966408923       -2.3477555959        1.2302894196
 C         -1.3633857259       -3.0251971529       -0.7648699642
 C         -0.6655728600       -3.0381160051       -2.0879107145
 C         -0.1886102508       -3.9324102739       -0.9858198426
 H         -0.3604169064       -4.9953567415       -1.0634960900
 H          0.7420382061       -3.6706941975       -0.5029662222
 H         -1.1912426923       -3.4735174957       -2.9238070668
 H         -0.0519837619       -2.1924271770       -2.3544824459
 H         -2.3394273126       -3.4994929596       -0.7371158274
