  62
        -98.94462630
 C         -1.9999710792       -1.3287410108        0.3626349191
 C         -2.7171720290       -0.8425873998       -0.7573521005
 C         -3.9131261992       -0.0428580803       -0.4521453000
 C         -4.2441231195        0.1892496285        0.8310373201
 C         -5.4044646897        1.0285470779        1.2800103607
 C         -4.9894577199        2.4935934978        1.4747647721
 C         -4.2094612998        3.0769200390        0.2962838129
 H         -3.9964542299        4.1219383188        0.5322326139
 H         -3.2473672397        2.5651920092        0.2145242226
 C         -4.9404908094        2.9957508802       -1.0511407274
 H         -6.0055680695        2.8296104899       -0.8852927178
 H         -4.8377857395        3.9550257807       -1.5628326164
 C         -4.4020834491        1.9243397212       -2.0013002483
 H         -4.8353731689        2.0987047620       -2.9897476182
 H         -3.3181387291        2.0298718314       -2.0969306879
 C         -4.7129342190        0.4727424307       -1.6151420297
 H         -5.7828979590        0.3630314404       -1.4271069301
 H         -4.4455344587       -0.1604280184       -2.4661551403
 H         -4.3624139701        2.5609367970        2.3669495523
 H         -5.8889337300        3.0874158975        1.6469964025
 H         -6.2013243995        0.9611681685        0.5420599604
 H         -5.7672807799        0.6339033269        2.2305982702
 O         -3.5186242497       -0.2781698824        1.8794104898
 C         -2.3760168395       -1.0335200421        1.6726272793
 O         -1.7868535397       -1.3729318430        2.7200020692
 H          0.1845647505        0.1673408189        0.9665795310
 C          0.6658691007       -0.1359630801        0.0444068409
 C          0.3034407410       -1.3456927796       -0.5372420804
 C          0.9377801913       -1.7335098984       -1.7089621006
 C          1.8852464813       -0.9119348577       -2.2971208296
 C          2.2300207710        0.2985123518       -1.7260559884
 C          1.6173817507        0.6850438705       -0.5396070081
 N          1.9822231405        1.8993481000        0.0656358531
 S          3.6124184904        2.2704334102        0.1489689438
 O          3.7520861700        3.1030327290        1.3233183646
 O          4.0376891306        2.8641714414       -1.0942452655
 C          4.4449241505        0.7092632900        0.3841667325
 C          5.3937538208        0.2926688010       -0.5271577177
 C          6.0110518209       -0.9337042691       -0.3395073187
 C          5.6670883408       -1.7201139302        0.7486989904
 C          4.7143752105       -1.2860026111        1.6579158406
 C          4.0962777604       -0.0595159611        1.4770248617
 H          3.3542242002        0.3053555782        2.1694523719
 H          4.4470758204       -1.8984221420        2.5042082500
 H          6.1435932509       -2.6770164202        0.8915451796
 H          6.7536680011       -1.2727168783       -1.0435440789
 H          5.6267805409        0.9338774819       -1.3616049670
 H          1.5186458302        2.0769063891        0.9441376132
 H          2.9540493111        0.9549160023       -2.1808992476
 H          2.3604273916       -1.2186709568       -3.2161256398
 H          0.6825141815       -2.6726853180       -2.1702726316
 C         -0.7504305390       -2.1695313204        0.1627292286
 H         -0.3799237392       -2.4009456213        1.1718762385
 C         -1.0856218787       -3.4668446398       -0.5408550527
 C         -0.2145844086       -4.6700241099       -0.3448411137
 C         -1.5784342987       -4.6232792506        0.2740820561
 H         -2.3558832986       -5.2494718004       -0.1371601747
 H         -1.6537774090       -4.4818975317        1.3427270462
 H         -0.0556155583       -5.3339774791       -1.1808646642
 H          0.6401489212       -4.5667900604        0.3061597266
 H         -1.5393076985       -3.3121201989       -1.5124704326
 O         -2.3826911587       -1.0640866386       -1.9494843307
