  62
        -98.93430043
 C         -2.3313693100       -1.1799307979        0.0735231270
 C         -3.2579320595       -0.5218360871        0.9169518946
 C         -4.1413098080        0.4856773601        0.2975959709
 C         -3.9925380944        0.7537445863       -1.0128482813
 C         -4.7412628478        1.7551853269       -1.8515012749
 C         -4.2781859012        3.1998107781       -1.6033148714
 C         -4.0785304768        3.5677371572       -0.1353152229
 H         -3.3488171762        2.8879882299        0.3090941667
 H         -3.6478122889        4.5720136541       -0.1000141702
 C         -5.3482281024        3.5747064667        0.7127724142
 H         -6.0598727145        4.2847223792        0.2856154170
 H         -5.0725822418        3.9385053479        1.7060755317
 C         -6.0497050185        2.2251057072        0.8800670240
 H         -6.7766082822        2.3351148105        1.6901592160
 H         -6.6169600652        1.9645547332       -0.0094195215
 C         -5.1310632394        1.0729113747        1.2749201737
 H         -4.5480852480        1.3643288980        2.1563534940
 H         -5.7513047331        0.2315853537        1.6078613110
 H         -3.3222590476        3.3398869488       -2.1138117451
 H         -5.0044704588        3.8775116940       -2.0549360625
 H         -5.8098226216        1.6563259806       -1.6852973852
 H         -4.5415333948        1.5011005057       -2.8947954665
 O         -3.0472111953        0.1358654169       -1.7755220428
 C         -2.1947791705       -0.8323458505       -1.2709555811
 O         -1.3880975414       -1.2800225641       -2.1054375955
 O         -3.3443248517       -0.7567527411        2.1535697786
 C         -1.4234372992       -2.2236697785        0.6977318865
 C          0.0101447616       -1.9725280814        0.3011098894
 C          0.8066447235       -2.9039777133       -0.3501840182
 C          2.1163433462       -2.5977348387       -0.6773479120
 C          2.6585295392       -1.3651290108       -0.3660772514
 C          1.8726915605       -0.4263758483        0.2902060142
 C          0.5647205078       -0.7394728427        0.6245519345
 H         -0.0486717606       -0.0064255362        1.1359930609
 N          2.4093231576        0.8368739918        0.5954465297
 S          3.8924047931        0.9062817442        1.3784011881
 O          4.1065857608       -0.2556784870        2.2097444841
 O          3.9032512179        2.1872666538        2.0511123930
 C          5.0794205861        0.9375238227        0.0522509118
 C          4.9510196037        1.9170568114       -0.9128103505
 C          5.8712806082        1.9608855360       -1.9478118260
 C          6.9003743884        1.0322590750       -1.9978517107
 C          7.0176560895        0.0574086775       -1.0190510779
 C          6.0995081300        0.0070944325        0.0183516834
 H          6.1469879770       -0.7364535545        0.7979105415
 H          7.8182677965       -0.6634806691       -1.0599664239
 H          7.6150449610        1.0688599393       -2.8047922832
 H          5.7826967460        2.7170868635       -2.7111758180
 H          4.1390322095        2.6209374619       -0.8362027018
 H          1.7488367783        1.4671311887        1.0263600601
 H          3.6753530054       -1.1218912504       -0.6274250335
 H          2.7218723959       -3.3289966312       -1.1907055988
 H          0.3967983969       -3.8625111577       -0.6220078052
 H         -1.5061782409       -2.0403864249        1.7829585508
 C         -1.8716238584       -3.6596548552        0.4713886992
 C         -3.3154388115       -3.9913995768        0.2441947318
 C         -2.3245369739       -4.1601222937       -0.8662421404
 H         -2.0494290967       -5.1635067596       -1.1568586771
 H         -2.3390498568       -3.4568552055       -1.6836491703
 H         -3.7188840277       -4.8747768794        0.7160342761
 H         -4.0147676415       -3.1698954995        0.1854486484
 H         -1.3129120989       -4.3570595788        1.0883097840
