  62
        -98.94548707
 C         -1.7229097909       -1.4462612188        0.2095414353
 C         -1.5143024704       -0.1321445134       -0.2762763900
 C         -2.5096821717        0.8632253743        0.1437497191
 C         -3.5128280585        0.5060429005        0.9654514676
 C         -4.5868935162        1.4146229833        1.4993462556
 C         -5.7703765353        1.6134844651        0.5424450151
 C         -5.4807764031        2.4901268476       -0.6766234906
 H         -6.4422471466        2.7238274426       -1.1383358614
 H         -5.0403674218        3.4321457596       -0.3486191763
 C         -4.5752423551        1.8335135381       -1.7279514530
 H         -4.9999723108        1.9898178989       -2.7222456944
 H         -4.5454407007        0.7544877308       -1.5596645227
 C         -3.1439970222        2.3699285651       -1.7561259515
 H         -3.1539704517        3.4207704403       -2.0536954669
 H         -2.5849229552        1.8110446689       -2.5107472344
 C         -2.3950615447        2.2459595571       -0.4225942599
 H         -1.3351043582        2.4353850326       -0.6047770700
 H         -2.7705558920        2.9810361135        0.2886252615
 H         -6.5768522052        2.0785377601        1.1141603194
 H         -6.1213355178        0.6331600684        0.2116954878
 H         -4.1556018636        2.3835735210        1.7518326790
 H         -4.9596508738        0.9504508790        2.4149544286
 O         -3.6566516066       -0.7613496616        1.4377397018
 C         -2.7793013528       -1.7651721394        1.0645665640
 O         -3.0376846350       -2.8823860247        1.5566156805
 O         -0.5574147204        0.2007802271       -1.0218581117
 C         -0.7651691904       -2.5671871177       -0.1609649533
 C          0.5966914156       -2.2110523698        0.3810608802
 C          0.8083853158       -2.2772289982        1.7556234520
 C          2.0169939520       -1.8921036040        2.3037492928
 C          3.0354712644       -1.4175278046        1.4947477727
 C          2.8284478415       -1.3357792203        0.1247885287
 C          1.6212984877       -1.7462152022       -0.4265058583
 H          1.4767551233       -1.6731606282       -1.4922591502
 N          3.8482133290       -0.8383224794       -0.7088783293
 S          4.5413266792        0.6350226342       -0.3212904711
 O          5.2195882316        1.0570682911       -1.5261152284
 O          5.3692670729        0.4751713007        0.8482949408
 C          3.1862227604        1.7362657955        0.0381860214
 C          2.7917850532        1.9307768054        1.3460631561
 C          1.7170574333        2.7665066654        1.6023359432
 C          1.0620492120        3.3918409539        0.5533507193
 C          1.4699232752        3.1847741275       -0.7551902946
 C          2.5383489997        2.3444800024       -1.0179073948
 H          2.8886000164        2.1642032880       -2.0215186526
 H          0.9564877605        3.6698810018       -1.5700834869
 H          0.2284360130        4.0455819136        0.7577896326
 H          1.3930460927        2.9261822589        2.6184210310
 H          3.3335198224        1.4375708504        2.1361814741
 H          3.5964898481       -0.8464330764       -1.6871765480
 H          3.9820545961       -1.1045444559        1.9046118834
 H          2.1686014278       -1.9568548143        3.3707063073
 H          0.0047497586       -2.6282439581        2.3889045782
 H         -1.1234672266       -3.4615228163        0.3661174894
 C         -0.7904368303       -2.8353217177       -1.6508928582
 C         -0.2343049200       -4.1217783565       -2.1809885731
 C         -1.7140731048       -3.8848660384       -2.1882212210
 H         -2.2036768683       -3.7054013923       -3.1337885706
 H         -2.3237523809       -4.4241347845       -1.4778867031
 H          0.2920816211       -4.1095545004       -3.1233503939
 H          0.1631842150       -4.8248844592       -1.4647574622
 H         -0.6619781264       -1.9402648417       -2.2476484258
