  62
        -98.93594303
 C         -1.8295398736       -1.0982859181       -0.1145606252
 C         -2.3449820300        0.1986194075       -0.3359159977
 C         -3.7988512472        0.3713576732       -0.1418424201
 C         -4.5365200297       -0.6807248711        0.2557735339
 C         -6.0214374099       -0.7543486594        0.5086154025
 C         -6.6512227470        0.4146823933        1.2814259041
 C         -7.5435324021        1.3062409112        0.4159580992
 H         -8.1093388033        0.6712554299       -0.2689716419
 H         -8.2647242725        1.8115030759        1.0622652488
 C         -6.8088853571        2.3812174104       -0.3833025726
 H         -7.5329738552        2.8447062025       -1.0576016128
 H         -6.4547222292        3.1591032347        0.2966797018
 C         -5.6195852177        1.8848099104       -1.2078477977
 H         -5.8552057225        0.9336835081       -1.6841032396
 H         -5.4436420689        2.6063823625       -2.0086268202
 C         -4.3197287034        1.7590009297       -0.3987020392
 H         -4.4223384354        2.2808181807        0.5571626633
 H         -3.5059663481        2.2643362299       -0.9286131937
 H         -7.2683837395       -0.0069509382        2.0764697620
 H         -5.8718218733        1.0068767896        1.7582398994
 H         -6.5290103914       -0.8798239533       -0.4511312401
 H         -6.1677411524       -1.6853757541        1.0609179574
 O         -3.9900243136       -1.9121625155        0.4711836713
 C         -2.6421614077       -2.1561549228        0.2900715180
 O         -2.2928543338       -3.3307146701        0.5239379736
 O         -1.6315983833        1.1753129063       -0.6866105261
 C         -0.3502261371       -1.3809892294       -0.3152139798
 C          0.4625001068       -0.4927211393        0.5942997184
 C          0.2330678005       -0.5682338191        1.9667041968
 C          0.9257001219        0.2411159759        2.8447834585
 C          1.8700027386        1.1374552642        2.3741884830
 C          2.1093369610        1.2193638713        1.0082884461
 C          1.4129552792        0.4002803706        0.1276390428
 H          1.6054778193        0.5012070450       -0.9265336141
 N          3.0444729040        2.1384735437        0.5079708751
 S          4.1258678692        1.7136053194       -0.6912250504
 O          5.1118750338        2.7715074737       -0.6759476698
 O          3.4413351842        1.4970476986       -1.9393506165
 C          4.8594710157        0.1959625890       -0.1095762199
 C          5.8801474577        0.2771255685        0.8179980660
 C          6.4200761426       -0.8930007090        1.3257010540
 C          5.9267324946       -2.1191243117        0.9054543398
 C          4.9019124122       -2.1832946170       -0.0256736452
 C          4.3598373978       -1.0159502375       -0.5403791405
 H          3.5659591563       -1.0273754683       -1.2684475605
 H          4.5207310120       -3.1373060977       -0.3535742630
 H          6.3445899350       -3.0304465217        1.3032475926
 H          7.2203755528       -0.8466836929        2.0465572183
 H          6.2421604606        1.2498796065        1.1090129945
 H          3.4954593100        2.7014138347        1.2140377093
 H          2.4062285705        1.7783578670        3.0574402266
 H          0.7320282554        0.1746317615        3.9047782740
 H         -0.5086812334       -1.2662992158        2.3312156700
 H         -0.1997505698       -2.4234146854        0.0007941398
 C          0.0102381877       -1.2616362080       -1.7804522494
 C          1.1438804365       -2.0634480743       -2.3426387217
 C         -0.2702210699       -2.4179162915       -2.6906860601
 H         -0.6253581888       -2.2134460406       -3.6895793327
 H         -0.7000490093       -3.3044781915       -2.2471070326
 H          1.7639217945       -1.6144523280       -3.1048132376
 H          1.6710938993       -2.7208592738       -1.6675790769
 H         -0.1585588978       -0.2671995712       -2.1777564703
