  62
        -98.94606143
 C          1.5196802744        1.1053626698        0.2034079309
 C          2.5432183271        0.6262577762        1.0579828325
 C          3.0761348360       -0.7065872602        0.7509925674
 C          2.5313362495       -1.4147567182       -0.2548028300
 C          3.0020942265       -2.7668831026       -0.7046873629
 C          4.0668793863       -2.6493984506       -1.8045713118
 C          5.1939818738       -1.6720661062       -1.4706195148
 H          5.9000513242       -1.6927224243       -2.3034273517
 H          4.7846553201       -0.6605029471       -1.4206716529
 C          5.9359345019       -1.9819633238       -0.1630579636
 H          5.7423503977       -3.0123121280        0.1373104203
 H          7.0097553791       -1.8912335547       -0.3392450833
 C          5.5947514313       -1.0450173018        0.9971758514
 H          5.6993449719       -0.0065134332        0.6727980768
 H          6.3223507875       -1.2129256020        1.7956298034
 C          4.1985789177       -1.2201790151        1.6083948941
 H          4.1621923695       -0.6327641263        2.5308794482
 H          4.0364424537       -2.2693174975        1.8656399087
 H          3.5802932001       -2.3111559773       -2.7222532873
 H          4.4846395837       -3.6411570707       -1.9867402466
 H          3.4039163265       -3.3070954780        0.1505971168
 H          2.1423360818       -3.3151082265       -1.0941390023
 O          1.5095796506       -0.9507046997       -1.0142096803
 C          0.9713671943        0.3093267871       -0.8026344675
 O          0.0331551274        0.5909710893       -1.5725188450
 O          2.9877409164        1.2853383424        2.0375056767
 C          0.9379939943        2.4770965546        0.4959838291
 C         -0.5686542256        2.4044784668        0.4989806306
 C         -1.3915428031        3.2700669752       -0.2096591490
 C         -2.7679409359        3.1245235167       -0.1669534024
 C         -3.3500674683        2.1015630854        0.5579095293
 C         -2.5340617960        1.2295118242        1.2692517115
 C         -1.1615772342        1.4038904643        1.2605308690
 H         -0.5431939531        0.7148757772        1.8185862562
 N         -3.0668024454        0.1379875989        1.9920437825
 S         -2.7272745086       -1.3790391300        1.3584062878
 O         -3.3947010553       -2.3156401350        2.2383418615
 O         -1.3038126365       -1.5425145487        1.2147232767
 C         -3.5494091538       -1.3743871905       -0.2253705727
 C         -4.8130441243       -1.9287304400       -0.3089998149
 C         -5.5002107039       -1.8581551700       -1.5094123133
 C         -4.9190527359       -1.2252473957       -2.5983172287
 C         -3.6528854512       -0.6708752638       -2.4956713686
 C         -2.9549572316       -0.7416301471       -1.2986957421
 H         -1.9655959380       -0.3205590109       -1.2019781976
 H         -3.1943631874       -0.1769437052       -3.3373044175
 H         -5.4545242807       -1.1641317940       -3.5326336132
 H         -6.4840048910       -2.2915479623       -1.5909891316
 H         -5.2218092726       -2.4111101698        0.5643282549
 H         -4.0641823992        0.2065722202        2.1473700448
 H         -4.4217500181        1.9701686815        0.5691269081
 H         -3.3935948881        3.8047346091       -0.7242469188
 H         -0.9568331434        4.0490387790       -0.8139680521
 H          1.2658016926        2.6954330314        1.5270561761
 C          1.4922067347        3.5912099788       -0.3803777431
 C          2.8168395951        3.4499071537       -1.0671896888
 C          1.5544172563        3.4705241626       -1.8727004831
 H          1.3429791923        4.3466296118       -2.4680408548
 H          1.2077765345        2.5476442487       -2.3101220072
 H          3.4690616848        4.3096268605       -1.1039415416
 H          3.3394339934        2.5103181192       -0.9588288703
 H          1.2677132117        4.5746860968        0.0207529939
