  62
        -98.93320750
 C         -2.5626750709       -1.1814812823        0.3847607785
 C         -3.1015717929       -0.5453365369       -0.7622386204
 C         -4.1770502901        0.4288130393       -0.5075366415
 C         -4.5818833501        0.6615316540        0.7528115545
 C         -5.6299389670        1.6589782500        1.1512635794
 C         -5.0067698417        3.0278213323        1.4584770321
 C         -4.0426423212        3.5231450328        0.3803868408
 H         -3.6893679662        4.5094841890        0.6889601782
 H         -3.1710799977        2.8648585290        0.3514138630
 C         -4.6543927924        3.6152008768       -1.0245273667
 H         -4.3565350124        4.5648401006       -1.4739359610
 H         -5.7427686830        3.6173927979       -0.9548914261
 C         -4.2100513344        2.5095052562       -1.9839535532
 H         -3.1192658743        2.4414106319       -1.9851018968
 H         -4.5217698021        2.7908120301       -2.9933040083
 C         -4.7792452171        1.1132435351       -1.7025522619
 H         -5.8653396058        1.1705608258       -1.6067277671
 H         -4.5421417129        0.4791712700       -2.5616442673
 H         -5.8126531522        3.7522513087        1.5897748091
 H         -4.4586092622        2.9549382513        2.4007755507
 H         -6.3589030691        1.7517346794        0.3486138157
 H         -6.1334491413        1.2894786972        2.0462737327
 O         -4.0359498277        0.0380717495        1.8288004603
 C         -3.0131979986       -0.8789303608        1.6729785064
 O         -2.5915296903       -1.3554145939        2.7487121735
 H          0.4502325637       -1.0880690725        1.7306647061
 C          0.6903516317       -1.0285126419        0.6757650181
 C         -0.1911516867       -1.5827782582       -0.2482844969
 C          0.1318812433       -1.4773634264       -1.5960745733
 C          1.3015223034       -0.8511185873       -1.9929602324
 C          2.1724927212       -0.3069857024       -1.0675881892
 C          1.8572525909       -0.3913175993        0.2818106091
 N          2.7246048233        0.1771792657        1.2342027716
 S          4.3283153511       -0.3293069209        1.2171586925
 O          4.4474555900       -1.6748631306        0.7046996066
 O          4.8107874868       -0.1070953444        2.5627037434
 C          5.1324271728        0.8158967513        0.1164828611
 C          5.7839106838        0.3473107853       -1.0076279424
 C          6.4106562116        1.2560069215       -1.8462329115
 C          6.3760087793        2.6093170509       -1.5466266583
 C          5.7202642326        3.0632903595       -0.4117623688
 C          5.0924930262        2.1601355173        0.4311045278
 H          4.5772305046        2.4706653873        1.3247763830
 H          5.6963221149        4.1163177848       -0.1816171141
 H          6.8636841116        3.3146235387       -2.2008996315
 H          6.9218730808        0.9051003306       -2.7282732940
 H          5.7811222782       -0.7134056523       -1.2019665505
 H          2.3610990698        0.1445856388        2.1762311592
 H          3.0809765885        0.1831778690       -1.3773739869
 H          1.5329487100       -0.7821584141       -3.0450595797
 H         -0.5426533942       -1.8521161958       -2.3445252301
 C         -1.4432602782       -2.2154568824        0.3091898769
 H         -1.2216201397       -2.4396314763        1.3641847406
 C         -1.9211288044       -3.5424350053       -0.2694318582
 C         -2.2773344246       -3.8185147083       -1.6979828835
 C         -1.0550349652       -4.4435916282       -1.0979744130
 H         -1.0719146057       -5.5026451545       -0.8871155787
 H         -0.0881594674       -4.0715422514       -1.3995108250
 H         -2.1791273978       -3.0247057484       -2.4182963310
 H         -3.1368509558       -4.4497680267       -1.8758614067
 H         -2.5586804624       -4.0392554255        0.4589066274
 O         -2.7249682145       -0.7614576743       -1.9396195770
