  62
        -98.94824585
 C         -1.3245487142       -1.1698140232       -0.0315797002
 C         -2.0826145145       -0.5799912431        1.0076988606
 C         -2.6278451892        0.7548602534        0.7298931324
 C         -2.3560855879        1.3441804992       -0.4486817084
 C         -2.8780274987        2.6834715136       -0.8795982343
 C         -4.2088697489        2.5460221403       -1.6326725794
 C         -5.2378173528        1.6728277597       -0.9147025962
 H         -4.8720518953        0.6440754660       -0.8820208830
 H         -6.1452463283        1.6730158727       -1.5222871864
 C         -5.5771346277        2.1330774753        0.5098247360
 H         -6.6604578774        2.0956114012        0.6419572789
 H         -5.2692742217        3.1701482197        0.6480774576
 C         -4.9649457421        1.2728706658        1.6170103209
 H         -5.1949558687        0.2202854868        1.4332148067
 H         -5.4361275456        1.5501618927        2.5638205308
 C         -3.4484602358        1.4073969752        1.8060009257
 H         -3.1803719513        0.8979661135        2.7366775626
 H         -3.1791625254        2.4611515039        1.9083319554
 H         -4.0083264909        2.1039750530       -2.6111651157
 H         -4.6214101433        3.5444456044       -1.7881310690
 H         -2.1406693158        3.1429687650       -1.5401706648
 H         -3.0057498587        3.3152564831       -0.0025693725
 O         -1.6036308954        0.7582853543       -1.4134665054
 C         -1.0700590231       -0.5118124741       -1.2337653035
 O         -0.4022127940       -0.9257946348       -2.1996138291
 O         -2.2935447241       -1.1464007645        2.1149721734
 C         -0.7064809293       -2.5382588501        0.1924518636
 C          0.7982287601       -2.4242337689        0.1502142368
 C          1.6110228005       -3.2441047010       -0.6214482700
 C          2.9845048195       -3.0712130746       -0.6178164465
 C          3.5724342344       -2.0791953063        0.1447140235
 C          2.7691202963       -1.2593865876        0.9299099734
 C          1.3962121098       -1.4451586714        0.9358640073
 H          0.7814721888       -0.8029521539        1.5507765795
 N          3.3352201652       -0.2476169955        1.7311922615
 S          2.7923091047        1.3256995315        1.5612202327
 O          3.7291141764        2.1195078392        2.3262810540
 O          1.4079224998        1.4202764010        1.9469936962
 C          2.9827003571        1.6762241735       -0.1749052858
 C          4.1531399818        2.2527742113       -0.6288512640
 C          4.3161823342        2.4502203146       -1.9905039548
 C          3.3196492792        2.0556757710       -2.8715295783
 C          2.1525713534        1.4745803247       -2.4001056897
 C          1.9807848692        1.2855955369       -1.0386315967
 H          1.0836421963        0.8382032521       -0.6415958322
 H          1.3720373051        1.1494420651       -3.0702253570
 H          3.4508037615        2.2015000476       -3.9321642277
 H          5.2203579440        2.9051489951       -2.3618547417
 H          4.9002366124        2.5444757619        0.0916157844
 H          4.3459935684       -0.2547559752        1.7382791953
 H          4.6427517521       -1.9393163394        0.1387707201
 H          3.6043351043       -3.7122763724       -1.2257238574
 H          1.1694930638       -4.0155101717       -1.2302280742
 H         -0.9955668385       -2.8231465422        1.2153922397
 C         -1.2738651312       -3.5536849947       -0.7763130265
 C         -1.3251165646       -5.0040643280       -0.4022508504
 C         -2.5879476065       -4.1996405440       -0.4585337608
 H         -3.2821616752       -4.3808782841       -1.2653370594
 H         -3.0635466205       -3.9248924300        0.4719761332
 H         -1.1552622998       -5.7419845924       -1.1715723332
 H         -0.9460912737       -5.2830043356        0.5692888347
 H         -1.0822714835       -3.2956854653       -1.8115181298
