  62
        -98.94385609
 C          1.3162403406        1.4060660608        0.6388245090
 C          2.0790023195        0.9806744013       -0.4773380032
 C          3.0654860934       -0.0784145817       -0.2146366078
 C          3.1813700575       -0.5880861482        1.0238624213
 C          4.1193261596       -1.6913823729        1.4172319407
 C          3.4453850066       -3.0660493446        1.3123683920
 C          2.7267730867       -3.3116813282       -0.0150704453
 H          2.3439681615       -4.3349487932        0.0109409326
 H          1.8526078539       -2.6585296914       -0.0841462907
 C          3.6060476955       -3.1301657140       -1.2602331706
 H          4.6593479412       -3.1925681891       -0.9825563911
 H          3.4020557382       -3.9525351541       -1.9493772201
 C          3.3588179352       -1.8332195057       -2.0333870027
 H          3.8396718230       -1.9238429419       -3.0113558926
 H          2.2853108098       -1.7134202945       -2.2047182629
 C          3.8896789774       -0.5518912504       -1.3778018024
 H          3.8442520274        0.2467874524       -2.1240467993
 H          4.9324206243       -0.6916739205       -1.0851464884
 H          4.2073787958       -3.8339399568        1.4613481736
 H          2.7100643643       -3.1559387728        2.1154984267
 H          4.9991821116       -1.6572960129        0.7775936146
 H          4.4267375741       -1.5275136743        2.4518669989
 O          2.4168579814       -0.1729788487        2.0657811628
 C          1.4423917616        0.7962650761        1.8885579635
 O          0.7592290696        1.0245546997        2.9080687477
 O          1.9529830018        1.4510091255       -1.6373007405
 C          0.2058111009        2.4335626093        0.4983844145
 C         -0.6760006764        2.0720506898       -0.6738391717
 C         -1.1725324064        2.9842406517       -1.5951312447
 C         -1.9949260360        2.5562992800       -2.6242052170
 C         -2.3469283982        1.2252526598       -2.7535022883
 C         -1.8501258432        0.3035382439       -1.8378773488
 C         -1.0340205353        0.7373869273       -0.8085062026
 H         -0.6286351192        0.0131823124       -0.1198263593
 N         -2.1522797980       -1.0605854909       -1.9394000464
 S         -2.1443267737       -2.0504832467       -0.5986068445
 O         -0.7980341392       -2.2712130986       -0.1332675327
 O         -2.8642247499       -3.2299138924       -1.0299738859
 C         -3.1089590932       -1.1822985491        0.6259970434
 C         -4.4539944737       -1.0034722411        0.3639418845
 C         -5.2300105334       -0.3046534321        1.2732680723
 C         -4.6499728656        0.2075861046        2.4243603927
 C         -3.3011916254        0.0144785761        2.6772355597
 C         -2.5210476654       -0.6882708179        1.7719466159
 H         -1.4678928856       -0.8478310236        1.9471820821
 H         -2.8405019815        0.4108967247        3.5683086992
 H         -5.2510902320        0.7580366813        3.1306238496
 H         -6.2807811428       -0.1582210619        1.0821071094
 H         -4.8706083589       -1.4261755865       -0.5357072575
 H         -2.8582595128       -1.3095332238       -2.6146605554
 H         -2.9819600486        0.8966306474       -3.5615975068
 H         -2.3679912451        3.2735254227       -3.3395251085
 H         -0.9016688345        4.0247191506       -1.5239850938
 H         -0.4034971695        2.3089334240        1.4101069158
 C          0.6718410444        3.8825847052        0.4893223020
 C          2.0290480719        4.2682733411        0.9957508678
 C          1.7143510132        4.3811892980       -0.4641690064
 H          1.5931820939        5.3683624787       -0.8859647159
 H          2.1488465462        3.6629719423       -1.1407432451
 H          2.1200907230        5.1731620212        1.5780783911
 H          2.6891027587        3.4745785970        1.3157492142
 H         -0.1343638061        4.5691555704        0.7284112689
