  62
        -98.94445200
 C         -1.7100323485       -1.4461891814        0.5610166013
 C         -2.6339332358       -1.0065356254       -0.4190897398
 C         -3.4004782040        0.1991684062       -0.0730630585
 C         -3.1604435926        0.8470377148        1.0802563823
 C         -3.8646358339        2.0843906796        1.5676103796
 C         -3.3029265060        3.3946883902        0.9986592122
 C         -3.6124311298        3.6518385147       -0.4767142360
 H         -4.6860825285        3.5565594024       -0.6420471780
 H         -3.3445664383        4.6900354610       -0.6835162532
 C         -2.8563939394        2.7403334939       -1.4541235745
 H         -2.4408097825        3.3407204137       -2.2662655609
 H         -2.0166764398        2.2660937493       -0.9416082005
 C         -3.7146880712        1.6488084082       -2.0922257648
 H         -4.4900460475        2.1032404713       -2.7130395168
 H         -3.0743375906        1.0446802380       -2.7395863214
 C         -4.3854167794        0.7098914506       -1.0813987853
 H         -5.2098398013        1.2193746263       -0.5829794230
 H         -4.7829980059       -0.1508222603       -1.6245992918
 H         -2.2220497047        3.4073494527        1.1526059076
 H         -3.7305696837        4.2118400575        1.5843939988
 H         -4.9280380054        2.0133808102        1.3370528006
 H         -3.7467030330        2.1024375637        2.6534206771
 O         -2.2255095793        0.4224178392        1.9724385441
 C         -1.4799222116       -0.7177465183        1.7320619546
 O         -0.6504962262       -0.9813706878        2.6269448738
 H          1.5710572036       -2.0833368605        1.4212744050
 C          1.5591530572       -1.9032219361        0.3546932662
 C          0.4093444948       -2.1890469660       -0.3675378168
 C          0.3941048356       -1.9207951590       -1.7321923385
 C          1.5066180168       -1.3778417566       -2.3498465524
 C          2.6482133745       -1.0816673140       -1.6243650667
 C          2.6692095733       -1.3440776308       -0.2613418401
 N          3.8107041076       -1.0130659766        0.4945954812
 S          4.3831817247        0.5491450778        0.3149947848
 O          5.2207302692        0.6205499489       -0.8563430837
 O          5.0307913341        0.8691385798        1.5678739664
 C          2.9411186737        1.5767161191        0.0791040884
 C          1.9110589976        1.5001284901        0.9956043983
 C          0.7968808609        2.3044097721        0.8206251993
 C          0.7337142082        3.1747629947       -0.2565763327
 C          1.7749446860        3.2381993278       -1.1694175990
 C          2.8880998493        2.4300535047       -1.0043480290
 H          3.7171083295        2.4426126938       -1.6931288996
 H          1.7199953874        3.9129314615       -2.0083215663
 H         -0.1312667795        3.8064922445       -0.3858138993
 H         -0.0157335321        2.2343494009        1.5280176024
 H          1.9719318496        0.8214286935        1.8318472015
 H          3.7213130247       -1.2432791464        1.4741066926
 H          3.5170904479       -0.6432901342       -2.0883691027
 H          1.4824997376       -1.1713343955       -3.4089562510
 H         -0.5061026628       -2.1092037348       -2.2958513248
 C         -0.8159493243       -2.6648155602        0.3737649129
 H         -0.4998409900       -2.9635330841        1.3824871798
 C         -1.4926639378       -3.8486485749       -0.2809794420
 C         -0.8524005384       -5.1976262184       -0.1574894191
 C         -2.1206198976       -4.8989834053        0.5829501145
 H         -3.0368542057       -5.3607703391        0.2471702971
 H         -2.0669872802       -4.7674024584        1.6541988018
 H         -0.8950585662       -5.8671895985       -1.0026078882
 H          0.0626298855       -5.2672852092        0.4117582150
 H         -1.9940874589       -3.6112689433       -1.2085715223
 O         -2.8318306393       -1.5714527165       -1.5250851539
