  62
        -98.95136399
 C         -1.8353939839       -1.2366157469       -0.2898949117
 C         -2.9156823415       -0.5368562150        0.2948076549
 C         -3.2093770262        0.7793616763       -0.2805412084
 C         -2.4739731045        1.2374440940       -1.3101792067
 C         -2.6370723942        2.5690075282       -1.9904040903
 C         -1.9088605300        3.7095475427       -1.2655401541
 C         -2.5810738229        4.1904170506        0.0211843020
 H         -2.1113316074        5.1380394909        0.2926067927
 H         -3.6365848066        4.3902251119       -0.1696171269
 C         -2.4403982700        3.2200595406        1.2023988480
 H         -2.1625278431        3.7790102531        2.0998221949
 H         -1.6209386428        2.5244936014        1.0026630387
 C         -3.7088692793        2.4334013578        1.5357296554
 H         -3.4776193938        1.7466575574        2.3543341080
 H         -4.4840447091        3.1212869398        1.8823429869
 C         -4.2738441666        1.6094654929        0.3713988742
 H         -5.0292596487        0.9277774881        0.7708981751
 H         -4.7457118145        2.2660208432       -0.3592613899
 H         -1.8450646787        4.5529508627       -1.9574599217
 H         -0.8910393002        3.3825633518       -1.0360379961
 H         -2.2078613567        2.4643194176       -2.9891699779
 H         -3.6958068199        2.8110944160       -2.0883465130
 O         -1.4743824644        0.5136985181       -1.8757230587
 C         -1.0973781096       -0.7091924753       -1.3487166279
 O         -0.1155237175       -1.2318728449       -1.9131611866
 H         -0.2314245234       -0.4407948258        1.4724739999
 C          0.4755017127       -1.2439286859        1.3229938299
 C          0.0575416640       -2.4368532275        0.7467624001
 C          0.9906608786       -3.4537969973        0.5874099312
 C          2.3093753494       -3.2634528834        0.9646392590
 C          2.7319095011       -2.0512874696        1.4792565310
 C          1.8027505003       -1.0326457059        1.6534380656
 N          2.1735244727        0.2432873748        2.1325990947
 S          2.0418038809        1.4958724494        1.0206013527
 O          2.5286822519        2.6693721730        1.7146289160
 O          0.6976079877        1.5676213733        0.5131856175
 C          3.1999814016        1.0461668106       -0.2592958781
 C          4.4823508920        1.5574890338       -0.1884673433
 C          5.4204324207        1.1526592372       -1.1233730093
 C          5.0645401367        0.2369508621       -2.1026338362
 C          3.7752619738       -0.2688742047       -2.1567683635
 C          2.8280454186        0.1348621091       -1.2270134628
 H          1.8175849932       -0.2439102495       -1.2584757682
 H          3.4900185991       -0.9804561618       -2.9149879192
 H          5.7946973194       -0.0839355775       -2.8288240633
 H          6.4227263824        1.5478809868       -1.0841421835
 H          4.7100483218        2.2686686868        0.5893356466
 H          3.0990041549        0.2693160307        2.5399017853
 H          3.7671548444       -1.8905066996        1.7403458788
 H          3.0224606548       -4.0627560469        0.8329651149
 H          0.6864918374       -4.3944034016        0.1579479699
 C         -1.3849675770       -2.5528726285        0.3166753299
 H         -2.0087042599       -2.6945945635        1.2123528427
 C         -1.6347175198       -3.7007668511       -0.6395539658
 C         -1.9529881061       -5.0693946606       -0.1174326972
 C         -3.0244985421       -4.2465851013       -0.7651207682
 H         -3.3793554033       -4.5338745613       -1.7434257159
 H         -3.7856783801       -3.8071646529       -0.1369772905
 H         -1.5746931460       -5.9267692890       -0.6534781133
 H         -1.9948026308       -5.1995464745        0.9534089711
 H         -1.0447892083       -3.6198111079       -1.5457190853
 O         -3.5939323794       -0.9875113641        1.2588795636
