  62
        -98.94031173
 C          2.3414822804        0.8446358898       -0.2139171810
 C          3.5985512105        1.1438876998        0.3649124489
 C          4.7523255404        0.4290885796       -0.1959832512
 C          4.5602729502       -0.4334604905       -1.2108345411
 C          5.6355733001       -1.2704307906       -1.8398208811
 C          5.7498878601       -2.6360396905       -1.1479380510
 C          5.8303352602       -2.5503003804        0.3762283290
 H          4.8830422702       -2.1658019103        0.7613915291
 H          5.9402162601       -3.5691395104        0.7539241891
 C          6.9818534803       -1.6824657004        0.9029806389
 H          7.4735362503       -2.2126398904        1.7213292789
 H          7.7250900602       -1.5372750606        0.1182963988
 C          6.5513472004       -0.3204031304        1.4506719088
 H          5.7402443305       -0.4550453702        2.1707363189
 H          7.3983237405        0.1124312696        1.9895997887
 C          6.1012133104        0.7083701196        0.4054472987
 H          6.8600176804        0.7972239795       -0.3744546613
 H          6.0101052105        1.6753445096        0.9087046286
 H          4.8726237200       -3.2314342605       -1.4112611508
 H          6.6351188600       -3.1451770406       -1.5332308110
 H          5.3804031501       -1.4248272007       -2.8895003310
 H          6.5838163502       -0.7399842207       -1.7801754512
 O          3.3405899402       -0.6815024004       -1.7526929410
 C          2.1984046303       -0.0666782303       -1.2601528009
 O          1.1473650902       -0.4093313303       -1.8338986608
 O          3.7470757206        1.9651432898        1.3097249688
 C          1.1023412405        1.5249258799        0.3413631690
 C          0.1755716704        0.4809588701        0.9134829391
 C          0.6423642305       -0.3208015899        1.9532428692
 C         -0.1573629196       -1.3038480098        2.5011114393
 C         -1.4424707096       -1.5049637097        2.0281066494
 C         -1.9160388996       -0.7149174498        0.9875485094
 C         -1.1099992696        0.2753467001        0.4411756992
 H         -1.5028256096        0.8728036201       -0.3638256708
 N         -3.2015245097       -0.9272613997        0.4659594595
 S         -4.0778012996        0.3701451803       -0.1576336506
 O         -3.6242359197        0.6568834401       -1.4948606406
 O         -4.0603604895        1.4758704703        0.7744067193
 C         -5.7031820997       -0.3614302396       -0.2203256704
 C         -6.6200983396       -0.0810086595        0.7748778596
 C         -7.8676338097       -0.6834246794        0.7258271098
 C         -8.1740799598       -1.5533572094       -0.3096310101
 C         -7.2434507899       -1.8245460096       -1.3019801902
 C         -5.9951663998       -1.2244680297       -1.2599128303
 H         -5.2431358099       -1.3974799298       -2.0122454303
 H         -7.4857343400       -2.4994956097       -2.1069987901
 H         -9.1451675498       -2.0213297294       -0.3455100500
 H         -8.5943379396       -0.4722592893        1.4936196698
 H         -6.3398713295        0.6070954006        1.5560893996
 H         -3.7746091897       -1.5166975896        1.0539250996
 H         -2.0689180397       -2.2739742496        2.4538316195
 H          0.2185067904       -1.9163557697        3.3069478793
 H          1.6460969805       -0.1592537899        2.3229165191
 H          1.4612466206        2.1533995500        1.1700662189
 C          0.4542808605        2.4152311599       -0.6961053511
 C         -0.4498586994        3.5282062200       -0.2609270411
 C          0.9024481206        3.8386249198       -0.8270592012
 H          0.9620875405        4.2709310898       -1.8145554413
 H          1.6724701606        4.1814099498       -0.1514170313
 H         -1.3260669394        3.7408464800       -0.8553245111
 H         -0.6023357693        3.6603481601        0.7998142989
 H          0.2026151204        1.8857013998       -1.6086343110
