  62
        -98.94173541
 C          2.2558149862        0.7473693683        0.0731690099
 C          3.4350133827        1.0590874184        0.8010359387
 C          4.3761256639       -0.0447120957        1.0278136441
 C          4.0538835390       -1.2781860905        0.5993695204
 C          4.9355005298       -2.4865180847        0.7205959084
 C          5.8263957806       -2.6505918917       -0.5188638458
 C          6.5616641754       -1.3733323311       -0.9253427586
 H          7.1809811475       -1.6167825431       -1.7913612500
 H          5.8305918382       -0.6304932405       -1.2528542235
 C          7.4402817087       -0.7675673332        0.1781564001
 H          7.6363379778       -1.5154145607        0.9472984302
 H          8.4028415206       -0.4880083565       -0.2551811522
 C          6.8632030475        0.4903225905        0.8302367239
 H          6.5797435368        1.2071619128        0.0553257328
 H          7.6504379220        0.9533320987        1.4309751274
 C          5.6556008001        0.2708386753        1.7502676424
 H          5.8865889542       -0.5066618487        2.4812098600
 H          5.4726477024        1.2055005688        2.2883641521
 H          6.5509945934       -3.4423915013       -0.3203940860
 H          5.1993403417       -2.9662458132       -1.3561092167
 H          5.5505687548       -2.3925485920        1.6135380027
 H          4.2988976418       -3.3674777792        0.8195673448
 O          2.8911732984       -1.5540120484       -0.0412401196
 C          1.9673426023       -0.5563261284       -0.3356723906
 O          0.9684414360       -0.9748350533       -0.9506289413
 O          3.6882557951        2.2117394176        1.2413084052
 C          1.2829899583        1.8873808660       -0.1793015757
 C         -0.1023696141        1.4909348629        0.2596638816
 C         -0.4318479687        1.5373093280        1.6109109169
 C         -1.6805000776        1.1350589622        2.0459615525
 C         -2.6213989458        0.6668789039        1.1452255335
 C         -2.2936465296        0.5956701478       -0.2016189175
 C         -1.0484713255        1.0273516691       -0.6397816440
 H         -0.7992876747        0.9578492942       -1.6871486411
 N         -3.2342350536        0.1110761338       -1.1249891456
 S         -4.1462146012       -1.2401863441       -0.7305623888
 O         -3.4589217418       -2.1221440943        0.1835574086
 O         -4.5413321355       -1.8089001143       -2.0013195841
 C         -5.5873850212       -0.5479780142        0.0580840352
 C         -5.9973809393       -1.0271035482        1.2867617250
 C         -7.1276045920       -0.4824853287        1.8766749872
 C         -7.8255918449        0.5256716288        1.2299820743
 C         -7.4030691015        0.9938246244       -0.0053200495
 C         -6.2747407181        0.4529112958       -0.6004611122
 H         -5.9155329217        0.7866084665       -1.5594631339
 H         -7.9483937855        1.7779043543       -0.5054313829
 H         -8.7040174218        0.9486013974        1.6912924378
 H         -7.4573840873       -0.8463927806        2.8365491976
 H         -5.4201901135       -1.8087692627        1.7550648847
 H         -2.8690895274        0.0319854638       -2.0633175383
 H         -3.5910328933        0.3359186328        1.4793790554
 H         -1.9245423374        1.1811710879        3.0964789141
 H          0.3087914314        1.8841271511        2.3183513412
 H          1.6339741352        2.6918108722        0.4870451890
 C          1.3175223811        2.4526878912       -1.5917103100
 C          2.6216088276        2.6103283431       -2.3133303963
 C          1.6072658005        1.6242198697       -2.8057956573
 H          1.0727805715        1.8530777188       -3.7167104428
 H          1.7996616801        0.5715208445       -2.6695704960
 H          2.7912101522        3.5085435269       -2.8874840688
 H          3.5064334589        2.2292304786       -1.8243996373
 H          0.5965363190        3.2550513694       -1.7168323366
