  62
        -98.94117192
 C         -1.8879908184       -0.8986823003        0.2511084600
 C         -2.3205913277        0.0794543082        1.1805307260
 C         -2.5989190291        1.4121827357        0.6364581693
 C         -2.3640088281        1.6612183630       -0.6641898953
 C         -2.5652501869        2.9783784652       -1.3638032345
 C         -4.0072594501        3.2259915727       -1.8284388095
 C         -5.0062254965        3.5369425629       -0.7130210317
 H         -4.6174405713        4.3468789213       -0.0952167159
 H         -5.9178518836        3.8995061084       -1.1918619849
 C         -5.3594575878        2.3349996715        0.1741103202
 H         -6.4416091672        2.2911746417        0.3152014493
 H         -5.0644751504        1.4118469116       -0.3302653577
 C         -4.7224116145        2.3638798535        1.5636053328
 H         -5.0099251262        1.4515794653        2.0925460479
 H         -5.1088896405        3.2160097258        2.1267710878
 C         -3.1896874783        2.4405673052        1.5531871281
 H         -2.8255233151        2.2322550841        2.5624252781
 H         -2.8629205580        3.4395701165        1.2644702204
 H         -4.3468590710        2.3524620717       -2.3896725406
 H         -3.9858039733        4.0751450025       -2.5152673446
 H         -2.2452990849        3.7905085025       -0.7100503393
 H         -1.9144079102        2.9635626736       -2.2408594382
 O         -1.8847619316        0.7151433455       -1.5130404299
 C         -1.6368678503       -0.5823735835       -1.0855095941
 O         -1.2134669883       -1.3334276281       -1.9844141899
 O         -2.4651813232       -0.1514460139        2.4121569591
 C         -1.5717601789       -2.2856955094        0.7827609883
 C         -0.2128026626       -2.7114444502        0.2866875673
 C          0.0340882446       -3.8959747425       -0.3931613294
 C          1.3082456686       -4.1841473998       -0.8516617782
 C          2.3511110688       -3.2990414087       -0.6555278986
 C          2.1156209226       -2.1147477738        0.0354017585
 C          0.8478188072       -1.8432723507        0.5177300165
 H          0.6723949869       -0.9170176659        1.0478001494
 N          3.1577841898       -1.1994572881        0.2723031850
 S          2.7853704429        0.4465630768        0.3146952795
 O          2.2808693318        0.7719507391        1.6266561587
 O          1.9473649022        0.8134589199       -0.8050849640
 C          4.4191039799        1.1360882468        0.1200816186
 C          5.2476815146        1.1992421024        1.2246677523
 C          6.5304499363        1.7008545630        1.0719303886
 C          6.9614604099        2.1278624903       -0.1754637221
 C          6.1181290597        2.0603568344       -1.2742616734
 C          4.8343366930        1.5579349998       -1.1286981912
 H          4.1400877567        1.4924772076       -1.9513768884
 H          6.4540350470        2.3960403759       -2.2421081092
 H          7.9600239298        2.5183698023       -0.2917157958
 H          7.1878114858        1.7571058217        1.9244383042
 H          4.8641495160        0.8643501901        2.1742023968
 H          3.9675240309       -1.3754706148       -0.3073780709
 H          3.3375962133       -3.5151092238       -1.0367269635
 H          1.4862574131       -5.1039590789       -1.3880026532
 H         -0.7745165203       -4.5799194857       -0.5917097990
 H         -1.5018339996       -2.1454717748        1.8755962527
 C         -2.6632666026       -3.3187183562        0.5479854512
 C         -4.0905735113       -2.9025096264        0.3581482196
 C         -3.3250252571       -3.4951597405       -0.7846390580
 H         -3.5764261603       -4.4964995074       -1.1025329769
 H         -3.0078243192       -2.8471989197       -1.5863440073
 H         -4.8639938885       -3.4938468932        0.8249149882
 H         -4.3027462865       -1.8431725698        0.3369348452
 H         -2.5023906859       -4.2180082063        1.1346947692
