  62
        -98.94110929
 C         -1.6681573704       -0.3870596192        0.9350731893
 C         -2.8935481005       -1.0105884090        0.5954570594
 C         -4.0505839403       -0.1134081087        0.4436645291
 C         -3.8946726099        1.2109701813        0.6158724387
 C         -4.9756606696        2.2362146015        0.4356964783
 C         -5.0069548694        2.7671343611       -1.0042995219
 C         -5.0005673396        1.6693670008       -2.0681173215
 H         -5.0570168694        2.1600876006       -3.0422221717
 H         -4.0450586697        1.1410644406       -2.0297447513
 C         -6.1451677299        0.6545809912       -1.9401904313
 H         -6.9382248898        1.0668293216       -1.3152144915
 H         -6.5710866098        0.4801710610       -2.9305605013
 C         -5.7241580603       -0.7092974588       -1.3898830309
 H         -4.8670599603       -1.0837604592       -1.9552679907
 H         -6.5499952204       -1.4085116186       -1.5464647308
 C         -5.3706570304       -0.7462415785        0.1022581291
 H         -6.1764393203       -0.2923709781        0.6826893589
 H         -5.2847890107       -1.7963580184        0.3963417494
 H         -5.8974851992        3.3869213013       -1.1238747621
 H         -4.1293991192        3.3988477409       -1.1596123420
 H         -5.9359251398        1.7924019719        0.6912775584
 H         -4.7773438995        3.0667981017        1.1152067981
 O         -2.7027232598        1.7761387311        0.9342919786
 C         -1.5697136700        0.9994199608        1.0963240089
 O         -0.5452845299        1.6483152706        1.3876353788
 H          2.0027444397       -0.2352066204        0.2700806996
 C          1.5492323196       -0.9060063104       -0.4435212703
 C          0.3079125594       -1.4605869600       -0.1681749702
 C         -0.2744078407       -2.3046919202       -1.1077970700
 C          0.3819115393       -2.5872249107       -2.2914630999
 C          1.6322955995       -2.0539113311       -2.5513191799
 C          2.2209226796       -1.2063654410       -1.6201864501
 N          3.4773624298       -0.6368396114       -1.8623761102
 S          4.5532144598       -0.3609328013       -0.6131268902
 O          5.8437651298       -0.2856804718       -1.2642037901
 O          4.4257560294       -1.3508303210        0.4304927701
 C          4.1221954201        1.2531288890       -0.0008498607
 C          3.9190274001        1.4425201895        1.3510951892
 C          3.6048871904        2.7111373297        1.8114902588
 C          3.5015665007        3.7631599294        0.9153752485
 C          3.7127351408        3.5575843790       -0.4396134314
 C          4.0274455105        2.2916933488       -0.9055804310
 H          4.2008450205        2.0940543984       -1.9503259009
 H          3.6298246611        4.3795035188       -1.1325358516
 H          3.2525298710        4.7484908196        1.2765215782
 H          3.4359654403        2.8719411900        2.8641965088
 H          4.0030864398        0.5955732396        2.0143338695
 H          3.9382280098       -0.9503181117       -2.7037235101
 H          2.1493500195       -2.2884347415       -3.4695061898
 H         -0.0794235808       -3.2410909408       -3.0163056297
 H         -1.2458071908       -2.7277491798       -0.9033922800
 C         -0.3693284406       -1.1489723295        1.1450175996
 H          0.2881824496       -0.4631051895        1.6965588495
 C         -0.5309915310       -2.4134942092        1.9675828700
 C          0.6929979988       -3.0427597093        2.5596769703
 C         -0.3045511111       -2.3610562088        3.4467594000
 H         -0.9274044613       -2.9695342285        4.0852337701
 H         -0.0355120109       -1.4081284888        3.8792071197
 H          1.6421745089       -2.5571193496        2.3837696402
 H          0.7544000685       -4.1199824194        2.5888366906
 H         -1.3099199411       -3.0699749291        1.6039527601
 O         -3.0439032708       -2.2495818490        0.4239894698
