  62
        -98.93156672
 C          1.7473359263        0.8477614859        0.3788902273
 C          2.0985699275       -0.4773789463        0.0138418141
 C          3.4849487572       -0.6990207610       -0.4204035146
 C          4.3275885751        0.3483724527       -0.4660716775
 C          5.7888017473        0.2799143758       -0.8088801933
 C          6.5870932469       -0.2607271430        0.3946091075
 C          7.2455276545       -1.6197991594        0.1559801685
 H          8.1270262837       -1.4812891765       -0.4736288171
 H          7.5877794443       -1.9916623076        1.1241507474
 C          6.3621105343       -2.6836065181       -0.5027785669
 H          6.8658725136       -3.6429963065       -0.3666767347
 H          6.3153690043       -2.5070315751       -1.5783907579
 C          4.9311334297       -2.7972383674        0.0385495419
 H          4.8751923249       -2.4198323720        1.0598116128
 H          4.6655538878       -3.8556500835        0.0759184230
 C          3.8626995311       -2.0978532342       -0.8224908925
 H          4.1764802769       -2.1045401549       -1.8700199098
 H          2.9311408058       -2.6673621054       -0.7548408492
 H          7.3664667373        0.4535022221        0.6646225888
 H          5.9122896995       -0.3269607557        1.2507032569
 H          5.9325381747       -0.3547841139       -1.6804951341
 H          6.1122883294        1.2913140468       -1.0557260567
 O          3.9538019406        1.6066837579       -0.1233796710
 C          2.6614460287        1.8990279258        0.3026169399
 O          2.4870251554        3.1014552958        0.5679986220
 O          1.2822297983       -1.4371038365        0.0582102534
 C          0.3186031319        1.0584139297        0.8436616526
 C         -0.5945965040        1.4281975822       -0.2966828050
 C         -0.2532757141        2.4096283244       -1.2213565165
 C         -1.1281507543        2.7427760344       -2.2395260552
 C         -2.3614670287        2.1233678448       -2.3427268974
 C         -2.7112528535        1.1399161848       -1.4248861869
 C         -1.8184250516        0.7882449692       -0.4222214700
 H         -2.0840641837        0.0092607031        0.2746635668
 N         -3.9459946125        0.4854872636       -1.5047894672
 S         -4.7455106587        0.0062638359       -0.1147942086
 O         -6.1280581464       -0.1211849863       -0.5215709161
 O         -4.4837391338        0.9058079494        0.9836501790
 C         -4.0879385958       -1.6110639928        0.2294403621
 C         -3.5502277253       -1.8865770433        1.4707203317
 C         -3.0430036809       -3.1528428009        1.7156090874
 C         -3.0845371532       -4.1166989612        0.7204013786
 C         -3.6340759084       -3.8260645598       -0.5191872982
 C         -4.1421310503       -2.5620506560       -0.7701513825
 H         -4.5782990910       -2.2991814991       -1.7194016230
 H         -3.6639762026       -4.5793628649       -1.2899032989
 H         -2.6842584462       -5.0996162778        0.9127543876
 H         -2.6135610301       -3.3797151187        2.6783354543
 H         -3.5311410790       -1.1065782297        2.2162473842
 H         -4.5753514225        0.8342869909       -2.2122884235
 H         -3.0479089326        2.3969943513       -3.1295364582
 H         -0.8524656994        3.5049966051       -2.9529217201
 H          0.6966916426        2.9140554559       -1.1275418048
 H         -0.0038077759        0.0688594707        1.2060754669
 C          0.1935749399        2.0240640079        2.0141317211
 C         -0.3726036132        3.4035456589        1.8951431068
 C         -1.1545192437        2.3352780093        2.5958549870
 H         -1.2520539093        2.3878613909        3.6699914245
 H         -2.0282391872        1.9427820294        2.0945612072
 H          0.0879413802        4.1852318816        2.4797509606
 H         -0.7144191330        3.7334710116        0.9268750308
 H          1.0091600939        1.9047973735        2.7208765682
