  62
        -98.93785299
 C         -2.5851244497       -1.1491004284        0.5371157043
 C         -3.4518319759       -0.8694178302       -0.5486309717
 C         -4.5739906039        0.0375439493       -0.2522738256
 C         -4.7180394017        0.5382714706        0.9870688314
 C         -5.7737881023        1.5212678076        1.4007591315
 C         -5.2820012476        2.9660801662        1.2346549414
 C         -4.6546265116        3.2524492708       -0.1297017086
 H         -3.7330883039        2.6737254760       -0.2269961544
 H         -4.3734481653        4.3076972371       -0.1427768412
 C         -5.5701053118        2.9525599036       -1.3249036560
 H         -5.5062773921        3.7826267349       -2.0316775745
 H         -6.6066557389        2.8905878631       -0.9914289493
 C         -5.2094833461        1.6819713044       -2.0967502080
 H         -4.1473009691        1.6985216570       -2.3532959968
 H         -5.7724802498        1.6821020209       -3.0339245111
 C         -5.5118267479        0.3588304040       -1.3821076530
 H         -5.3892953072       -0.4471632621       -2.1115772143
 H         -6.5474339138        0.3550125558       -1.0363011796
 H         -4.5332947112        3.1672578574        2.0043990217
 H         -6.1261863593        3.6385806536        1.3976475820
 H         -6.6684078267        1.3595950154        0.8025796002
 H         -6.0134462048        1.3468154453        2.4510521341
 O         -3.8727945380        0.2382108658        2.0066579244
 C         -2.7892755024       -0.5974149042        1.8049567209
 O         -2.0901334432       -0.7823669027        2.8223950969
 H          1.0234452667       -1.8442385816        1.6454896236
 C          0.9922090063       -1.2659608890        0.7315153694
 C         -0.1686651697       -1.2554322117       -0.0269350324
 C         -0.1990541562       -0.4922418852       -1.1904078121
 C          0.9100051358        0.2370356370       -1.5775365211
 C          2.0652120850        0.2278783197       -0.8147045710
 C          2.1061251448       -0.5284552805        0.3483700064
 N          3.2661048466       -0.5259211684        1.1379319483
 S          4.7581595651       -0.7372724767        0.4017598194
 O          4.6449138878       -1.5301276191       -0.8000528820
 O          5.6171848436       -1.2613859688        1.4406201743
 C          5.2749692918        0.9178296852       -0.0008419360
 C          5.6454042584        1.2288550994       -1.2944158968
 C          6.0525858793        2.5224237048       -1.5821306250
 C          6.0832583348        3.4759613481       -0.5761968628
 C          5.7111051536        3.1464151446        0.7187635054
 C          5.3037401505        1.8551521290        1.0130828077
 H          5.0090667335        1.5591012019        2.0061143647
 H          5.7362254115        3.8907507227        1.4983407939
 H          6.3992271640        4.4821279681       -0.8023935565
 H          6.3428848604        2.7805670710       -2.5879199679
 H          5.6006750610        0.4563099811       -2.0456071743
 H          3.1920559732       -1.0717717468        1.9837764759
 H          2.9300562239        0.7973793862       -1.1131377971
 H          0.8746149208        0.8236184972       -2.4831227052
 H         -1.0991004660       -0.4836112234       -1.7863051376
 C         -1.3682701873       -2.0526665346        0.4171237716
 H         -1.1707679113       -2.4009757543        1.4434224674
 C         -1.6207001214       -3.2898950567       -0.4342781850
 C         -0.9478195990       -3.5567154958       -1.7437432834
 C         -0.5640815820       -4.3507786895       -0.5338219085
 H         -0.8601994182       -5.3870877081       -0.4727886430
 H          0.3956763749       -4.1392092297       -0.0850538542
 H         -0.2425096116       -2.8317883606       -2.1181624011
 H         -1.5325919924       -4.0326246911       -2.5159449304
 H         -2.6449179005       -3.6370460180       -0.3460357025
 O         -3.3152707810       -1.3374599242       -1.7071817891
