  62
        -98.94518963
 C         -1.8036195199       -1.4676663107        0.0934164616
 C         -1.5732366902       -0.0727222707        0.0073205805
 C         -2.6686285604        0.7786657293        0.4890616300
 C         -3.7964420802        0.2182235394        0.9618288105
 C         -4.9970353804        0.9565763394        1.4890136901
 C         -5.9620079206        1.4374617284        0.3962534399
 C         -5.4688663510        2.6219504479       -0.4362783210
 H         -6.3258426612        2.9923292873       -1.0025854212
 H         -5.1487823512        3.4239087685        0.2296593084
 C         -4.3389625810        2.2819816175       -1.4184811309
 H         -4.5585208612        2.7261790468       -2.3920726112
 H         -4.2960611707        1.2000098874       -1.5631837001
 C         -2.9576255011        2.7794933782       -0.9925826014
 H         -2.2296482311        2.4496100378       -1.7376533312
 H         -2.9533657914        3.8715819082       -0.9738778622
 C         -2.4988033208        2.2634894693        0.3770148389
 H         -1.4332447109        2.4767145397        0.4856948787
 H         -3.0448830509        2.7699594897        1.1724869186
 H         -6.8915055606        1.7308396385        0.8898403998
 H         -6.1888185604        0.5970381478       -0.2639743195
 H         -5.5317008101        0.2589334298        2.1372940007
 H         -4.6716068305        1.8070916100        2.0887025295
 O         -3.9737554799       -1.1288538306        1.0319812215
 C         -2.9870125797       -2.0016441507        0.6012768121
 O         -3.2760686493       -3.2094128107        0.7265528230
 H          1.7513814101       -1.7554995808       -1.3922748186
 C          1.7250707302       -1.7645786401       -0.3140313086
 C          0.5585988503       -2.1078568099        0.3488298818
 C          0.5619581805       -2.1099206989        1.7414335018
 C          1.6974297805       -1.7635565881        2.4477820314
 C          2.8560622203       -1.4025876783        1.7815038611
 C          2.8636782302       -1.4010623893        0.3940431411
 N          4.0355788200       -1.0288688294       -0.2949348993
 S          4.6819079196        0.4824410310        0.0282699295
 O          5.6393761895        0.7129816905       -1.0304562507
 O          5.2057454197        0.4947513621        1.3709086295
 C          3.3259902793        1.6307369805       -0.1135505812
 C          2.6021198193        1.9729351811        1.0097238886
 C          1.5316815891        2.8414337307        0.8749814881
 C          1.2024884788        3.3452005097       -0.3729124722
 C          1.9356713388        2.9861176991       -1.4924369320
 C          3.0064686390        2.1179104395       -1.3648490315
 H          3.6082555290        1.8222897891       -2.2096595013
 H          1.6717463286        3.3760504484       -2.4625618323
 H          0.3673031886        4.0205236395       -0.4759943226
 H          0.9550520491        3.1170292412        1.7440187280
 H          2.8893201795        1.5626004619        1.9641574089
 H          3.9610758099       -1.1510623602       -1.2952668992
 H          3.7461717903       -1.1104659576        2.3148179708
 H          1.6813531406       -1.7688307373        3.5274358214
 H         -0.3478634894       -2.3760911588        2.2630759921
 C         -0.7273423896       -2.4342265608       -0.3692044578
 H         -1.0563908293       -3.4357346506       -0.0582010171
 C         -0.6164153398       -2.4035080318       -1.8791994179
 C         -0.0698466496       -3.5868748822       -2.6186751271
 C         -1.5323541596       -3.2674348427       -2.6905599772
 H         -1.9301868998       -2.8731202234       -3.6136983274
 H         -2.2247731094       -3.8984098325       -2.1524366466
 H          0.2336742207       -4.4435081117       -2.0360905865
 H          0.5340988503       -3.4154987427       -3.4971435373
 H         -0.3990778201       -1.4128334720       -2.2625587886
 O         -0.5154431504        0.4350418192       -0.4437262799
