  62
        -98.93476788
 C         -2.3780916527       -1.3476054106        0.1895887880
 C         -2.2701114152        0.0276254960       -0.1266140878
 C         -3.3742992289        0.9056100062        0.3237240068
 C         -4.3989207138        0.3706959118        1.0115550286
 C         -5.6389674683        1.0479895326        1.5325981967
 C         -6.6600841612        1.3531596941        0.4259593537
 C         -6.0677895735        1.9638321769       -0.8409518927
 H         -5.3224788141        1.2815459899       -1.2535716214
 H         -6.8721118941        2.0484503752       -1.5763963428
 C         -5.4469309585        3.3478311853       -0.6659367370
 H         -6.1995675652        4.0309622219       -0.2663059824
 H         -5.1686546574        3.7060563991       -1.6604277303
 C         -4.2036259126        3.4164278105        0.2246778878
 H         -4.4695722331        3.4015395818        1.2782678481
 H         -3.7238617845        4.3822998514        0.0408890750
 C         -3.1545981644        2.3478287460       -0.0659641160
 H         -2.9337513285        2.3455007977       -1.1398831245
 H         -2.2131041910        2.6397627653        0.4161838669
 H         -7.4200641546        2.0215625431        0.8340699287
 H         -7.1486498048        0.4160517946        0.1479921197
 H         -5.3730717747        1.9516998640        2.0727670213
 H         -6.0948921340        0.3568528585        2.2450629113
 O         -4.4509351415       -0.9590927898        1.3102044051
 C         -3.4577914129       -1.8371757619        0.9305645523
 O         -3.6421278020       -3.0119575872        1.3069128846
 O         -1.3116591408        0.5322796065       -0.7688853770
 C         -1.3076733725       -2.3644749270       -0.1752524506
 C          0.0437982896       -1.8432739747        0.2429880595
 C          0.4071781461       -1.8978010609        1.5851027225
 C          1.6173584039       -1.3819820178        2.0089618305
 C          2.4842212733       -0.7915830646        1.1058089715
 C          2.1206215612       -0.7138536662       -0.2314899011
 C          0.9158381626       -1.2570321907       -0.6592118634
 H          0.6357855325       -1.1795714366       -1.6981377182
 N          2.9863601225       -0.1083258741       -1.1563448500
 S          3.7757746591        1.3095146312       -0.7342995318
 O          3.0225376026        2.1005334520        0.2106336481
 O          4.0986804559        1.9460390062       -1.9932333659
 C          5.2851538057        0.7341297397        0.0193088359
 C          5.6809375719        1.2420926879        1.2410785872
 C          6.8648387214        0.7911496205        1.8040494705
 C          7.6292987432       -0.1542101210        1.1379457299
 C          7.2199496435       -0.6522478731       -0.0900781425
 C          6.0382505772       -0.2045877945       -0.6585185492
 H          5.6870133275       -0.5650589391       -1.6107472948
 H          7.8169237058       -1.3875573944       -0.6050912414
 H          8.5491645872       -0.5048866897        1.5785609664
 H          7.1843523190        1.1781709728        2.7583482691
 H          5.0511202753        1.9712108509        1.7259805633
 H          2.5959170549       -0.0372648879       -2.0850178371
 H          3.4215809303       -0.3717880033        1.4323090169
 H          1.8880322085       -1.4341668698        3.0526990485
 H         -0.2790905768       -2.3404045105        2.2944310375
 H         -1.5374472716       -3.2450515903        0.4456023551
 C         -1.3434357211       -2.8367864350       -1.6211414767
 C         -2.6551019951       -3.0882694884       -2.3018229706
 C         -1.7745134251       -1.9675622441       -2.7621844936
 H         -1.2611018332       -2.0769999428       -3.7068139013
 H         -2.0704971001       -0.9538717967       -2.5441905408
 H         -2.7529256807       -3.9606984298       -2.9299793998
 H         -3.5523980187       -2.8411328636       -1.7528283187
 H         -0.5487027788       -3.5474128324       -1.8277680337
