  62
        -98.93728216
 C          1.3045167714        1.5430193369        0.1789853194
 C          2.3348719556        1.0670605533        1.0245582813
 C          3.2138585119        0.0109099702        0.4858573419
 C          2.9547366305       -0.4792358576       -0.7402948552
 C          3.7250229662       -1.5330402732       -1.4906720290
 C          3.4556958553       -2.9662297635       -0.9945577016
 C          3.2466678544       -3.1019722523        0.5123476488
 H          2.8652854894       -4.1072583996        0.7112617027
 H          2.4814672615       -2.3931977069        0.8351400228
 C          4.5057460574       -2.9120692433        1.3550054603
 H          5.2148439917       -3.7093292551        1.1189547256
 H          4.2228048331       -3.0203127592        2.4053467904
 C          5.2213954554       -1.5732694100        1.1832860399
 H          5.7057551145       -1.5207595163        0.2120817927
 H          6.0182791708       -1.5311186408        1.9319425603
 C          4.3489758451       -0.3426998486        1.4156875942
 H          4.9995774561        0.5405720141        1.4471770261
 H          3.9025213946       -0.4068725330        2.4146411715
 H          4.2851127233       -3.6034059176       -1.3052171576
 H          2.5528693002       -3.3286540967       -1.4890620660
 H          4.7854250749       -1.2977812361       -1.4463924816
 H          3.4168718266       -1.4615744633       -2.5357526147
 O          1.8891264418       -0.0628378097       -1.4780979292
 C          1.0453398222        0.9540659850       -1.0598755158
 O          0.1361549871        1.2199903413       -1.8640914816
 O          2.5230897306        1.5097199960        2.1907909847
 C          0.4395795496        2.6810155646        0.6910051089
 C         -1.0175445320        2.3608462300        0.4797715806
 C         -1.8505335783        3.0799550051       -0.3662046373
 C         -3.1718369723        2.7036653447       -0.5354872876
 C         -3.6920204958        1.6128237802        0.1362320102
 C         -2.8669418980        0.8879791797        0.9863920404
 C         -1.5441643828        1.2648667951        1.1531263250
 H         -0.8999826437        0.6923740246        1.8099508201
 N         -3.3879172607       -0.2327567319        1.6711627242
 S         -3.9030948611       -1.5059126716        0.7100540144
 O         -5.0764411924       -1.0982299174       -0.0186722841
 O         -4.0676902837       -2.6232444809        1.6126939945
 C         -2.5504930512       -1.8121838351       -0.4085908053
 C         -1.5396118074       -2.6575048944        0.0027738473
 C         -0.4542149715       -2.8589319073       -0.8332070838
 C         -0.3945385917       -2.2063394390       -2.0548119737
 C         -1.4136844560       -1.3545694669       -2.4497689728
 C         -2.5038035846       -1.1518369941       -1.6193321870
 H         -3.3140216087       -0.4959511311       -1.8925306709
 H         -1.3535314717       -0.8343070569       -3.3913486497
 H          0.4554531019       -2.3516440498       -2.7028013137
 H          0.3416663906       -3.5184711586       -0.5252468003
 H         -1.6272809330       -3.1518438389        0.9574551342
 H         -2.7573641455       -0.5899299925        2.3757037381
 H         -4.7144470831        1.2981238942        0.0032202970
 H         -3.8055981784        3.2669006903       -1.2036599295
 H         -1.4580187158        3.9196760303       -0.9153318740
 H          0.6284428458        2.6999090092        1.7775218793
 C          0.8369678804        4.0509344578        0.1615519710
 C          2.2634581407        4.3597333014       -0.1789207945
 C          1.2342380584        4.2821559155       -1.2643879017
 H          0.9227453792        5.2011493314       -1.7392122729
 H          1.2447665440        3.4310395226       -1.9267130905
 H          2.6583147524        5.3276273864        0.0912440475
 H          2.9820388547        3.5571449014       -0.0968887335
 H          0.2772808241        4.8459083399        0.6451250836
