  62
        -98.94120741
 C          0.8386163849        1.6442117470       -0.7827182596
 C          2.1239513266        1.7276347541       -0.1923842421
 C          3.0479564143        0.6053864596       -0.4263543294
 C          2.6258056861       -0.4352894920       -1.1645635228
 C          3.3410352232       -1.7313472194       -1.4302640290
 C          2.9662817529       -2.7733013975       -0.3605317288
 C          3.8767548388       -2.7851225967        0.8651312167
 H          3.4576180632       -3.5056552828        1.5715287292
 H          4.8695818450       -3.1394993119        0.5784338956
 C          4.0127429668       -1.4334060037        1.5698999396
 H          4.3388543173       -1.6195632788        2.5953766223
 H          3.0301563558       -0.9587417269        1.6264550543
 C          5.0192800567       -0.4940611401        0.8890822976
 H          5.6052943156       -1.0617797008        0.1664349145
 H          5.7246055872       -0.1199870747        1.6343600608
 C          4.4066533889        0.7363299192        0.2071022071
 H          4.2908115814        1.5374915211        0.9440320882
 H          5.1066108572        1.1072985901       -0.5498235606
 H          2.9870461122       -3.7682747997       -0.8110305656
 H          1.9406545984       -2.5768714018       -0.0331083446
 H          4.4159639910       -1.5827912745       -1.4740758927
 H          2.9949171585       -2.0853846193       -2.4035547596
 O          1.3978791651       -0.4635775609       -1.7445966384
 C          0.4685110971        0.5460454983       -1.5590553691
 O         -0.6126521043        0.3328300278       -2.1426360887
 O          2.4839503305        2.7078788626        0.5170675592
 C         -0.1426329651        2.7471985866       -0.4220694749
 C         -0.9083965717        2.3353278858        0.8150001355
 C         -1.0476572256        3.1864724534        1.9045745223
 C         -1.6912976653        2.7575517752        3.0524854649
 C         -2.1698516721        1.4630467821        3.1518187615
 C         -2.0358459526        0.6063173976        2.0655510532
 C         -1.4497281521        1.0611969346        0.8956448578
 H         -1.3748864899        0.3915963919        0.0549959496
 N         -2.4684161359       -0.7272383042        2.1151722987
 S         -1.5349379391       -1.8988190131        1.3557289172
 O         -1.8555043047       -3.1228320951        2.0654238867
 O         -0.1344231793       -1.5432175319        1.3372026223
 C         -2.1901225404       -2.0319008572       -0.2920895728
 C         -3.5119605828       -1.7130963962       -0.5283958888
 C         -4.0195219541       -1.8781407329       -1.8066621824
 C         -3.2049326808       -2.3626185533       -2.8181982172
 C         -1.8819169813       -2.6830613079       -2.5624699920
 C         -1.3675999798       -2.5175286666       -1.2872410274
 H         -0.3371775406       -2.7368392741       -1.0550133132
 H         -1.2433577709       -3.0487572339       -3.3505327797
 H         -3.6006887690       -2.4850954698       -3.8142180703
 H         -5.0471772328       -1.6233021599       -2.0111268274
 H         -4.1148795967       -1.3303103811        0.2784367477
 H         -2.8017232847       -1.0413425472        3.0151451903
 H         -2.6325063541        1.1143949574        4.0624960837
 H         -1.7949431974        3.4285679911        3.8916667532
 H         -0.6277826891        4.1802493017        1.8584136968
 H          0.4729439298        3.6182731854       -0.1582521055
 C         -1.0906131315        3.1458224040       -1.5344620346
 C         -1.6979622856        4.5155810987       -1.5179116592
 C         -0.6566403014        4.1693921308       -2.5385895181
 H         -0.9585906250        4.0394309703       -3.5666471362
 H          0.3305914972        4.5931758165       -2.4244061254
 H         -2.7203326019        4.6273028848       -1.8440679139
 H         -1.4169494297        5.1804950315       -0.7154740815
 H         -1.7002189411        2.3261759724       -1.8909144178
