  62
        -98.94330020
 C          2.5116592337        1.0561247765       -0.1474855414
 C          3.6508966817        0.8720820564        0.6729395617
 C          4.6796314782       -0.0304325667        0.1453141956
 C          4.5065979611       -0.6085536410       -1.0574002891
 C          5.4742870014       -1.5373136940       -1.7393717351
 C          5.3539802775       -3.0009269690       -1.2929313795
 C          5.8842633443       -3.2991642436        0.1100469334
 H          5.9390387770       -4.3852565592        0.2072720809
 H          6.8996370405       -2.9126816411        0.2035336597
 C          5.0138553694       -2.7458850510        1.2470270991
 H          4.8780077302       -3.5161619802        2.0095654570
 H          4.0218875361       -2.5007247551        0.8602577785
 C          5.5913281777       -1.5147683466        1.9456154554
 H          6.5222335048       -1.7824071175        2.4504141750
 H          4.8786682224       -1.1865450682        2.7066337187
 C          5.8660612806       -0.3288924382        1.0115096666
 H          6.0598218600        0.5538848067        1.6258437444
 H          6.7448504471       -0.5282394438        0.3987442072
 H          5.9172264399       -3.6062840264       -2.0068627476
 H          4.3053652058       -3.3003513370       -1.3575635827
 H          6.4943739805       -1.1884037291       -1.5765249938
 H          5.2546481737       -1.4844290087       -2.8078264460
 O          3.4043449545       -0.3920766204       -1.8230198232
 C          2.3719808498        0.4242536482       -1.3830599423
 O          1.4142085173        0.5079527765       -2.1749177426
 O          3.7995041536        1.4345250221        1.7908326400
 C          1.3937653083        1.9564893851        0.3486302085
 C          0.1393335658        1.1376715289        0.5266836853
 C          0.1552295839        0.0906613205        1.4456438951
 C         -0.9596922557       -0.7017533177        1.6346452057
 C         -2.1162478753       -0.4719143155        0.9088237138
 C         -2.1461841585        0.5723348888       -0.0038900084
 C         -1.0249634167        1.3743854516       -0.1848062820
 H         -1.0643368768        2.1791493486       -0.9020916133
 N         -3.3093004307        0.8026393622       -0.7545758930
 S         -4.7964678863        0.8210546920        0.0166183909
 O         -5.6526091435        1.6162540291       -0.8362131235
 O         -4.6761906777        1.2559172884        1.3888640201
 C         -5.3351155857       -0.8748973606       -0.0430049006
 C         -5.7070209869       -1.5217178044        1.1191678283
 C         -6.1334879350       -2.8387864030        1.0463074005
 C         -6.1815617913       -3.4815158962       -0.1811485858
 C         -5.8074609514       -2.8167512334       -1.3396406364
 C         -5.3808253714       -1.5001006948       -1.2736278529
 H         -5.0836737610       -0.9490158385       -2.1503583189
 H         -5.8457371454       -3.3199750921       -2.2924230733
 H         -6.5126696715       -4.5065868357       -0.2358515892
 H         -6.4250947602       -3.3572576913        1.9456180187
 H         -5.6487163040       -0.9837349822        2.0520796208
 H         -3.2282067389        1.5562544263       -1.4209855016
 H         -2.9884307170       -1.0896499640        1.0468058700
 H         -0.9300349262       -1.5094292911        2.3502911185
 H          1.0604190071       -0.0921615730        2.0087367758
 H          1.7177476048        2.3012445284        1.3413759937
 C          1.2281210926        3.1610146378       -0.5524986726
 C          0.5674343289        4.4001769593       -0.0284426296
 C          2.0441962855        4.3879749150       -0.2827639771
 H          2.4281376816        4.9465481511       -1.1231674234
 H          2.7106248027        4.3651960203        0.5669326876
 H         -0.0627115972        4.9717641798       -0.6933494167
 H          0.2277463004        4.3889944667        0.9963375241
 H          1.0636447784        2.8920557909       -1.5898448669
