  62
        -98.94891467
 C          2.2544695497        0.7961025325        0.0748110610
 C          1.5853333584        0.0801267944       -0.9465119678
 C          1.9383255851       -1.3396551541       -1.0745416128
 C          2.8211232023       -1.8781006122       -0.2144064716
 C          3.2778618212       -3.3080220787       -0.2331263999
 C          2.4174257353       -4.1995163179        0.6711965051
 C          0.9128518680       -4.0455593380        0.4482348493
 H          0.5938663462       -3.0525580161        0.7737527928
 H          0.4125069825       -4.7653214735        1.1009793932
 C          0.4551204771       -4.2662760913       -1.0001672591
 H         -0.4456217247       -4.8837481121       -0.9878340210
 H          1.2187198459       -4.8139273777       -1.5549168547
 C          0.1009550740       -2.9772378659       -1.7443089380
 H         -0.5489614168       -2.3698229353       -1.1092524467
 H         -0.4640391739       -3.2429082907       -2.6420587539
 C          1.2910097665       -2.1156318698       -2.1867168597
 H          0.9177679338       -1.3690552993       -2.8939266030
 H          2.0263925419       -2.7389904557       -2.7008419000
 H          2.6346845903       -3.9516177098        1.7129793758
 H          2.7067818208       -5.2390177010        0.5023514072
 H          3.2446552774       -3.6759149386       -1.2570650334
 H          4.3102281094       -3.3394532506        0.1209240687
 O          3.3971614345       -1.1731215765        0.7944440329
 C          3.1182436540        0.1718632719        0.9718056967
 O          3.6952344971        0.6946834623        1.9495698778
 H          0.3916066534        0.9702963254        1.9110632821
 C         -0.1716381103        1.6816229414        1.3183732266
 C          0.4994222631        2.4919361300        0.4104462008
 C         -0.2400103251        3.4030172118       -0.3323474954
 C         -1.6175547346        3.4626196126       -0.2046261746
 C         -2.2864355100        2.6034497362        0.6485968735
 C         -1.5506978549        1.7129480799        1.4178025059
 N         -2.2483952109        0.7629200231        2.2245570363
 S         -2.2787449296       -0.7320606948        1.4314235358
 O         -3.0350961731       -1.6176864239        2.2923144116
 O         -0.9426887670       -1.1842222706        1.1082548770
 C         -3.2047348536       -0.3577265163       -0.0368905916
 C         -2.5451160274        0.0463947749       -1.1806886541
 C         -3.2977939239        0.3793514291       -2.2968038952
 C         -4.6812643982        0.3077698811       -2.2493882700
 C         -5.3265380754       -0.0986732902       -1.0906438585
 C         -4.5828215387       -0.4327460887        0.0289930471
 H         -5.0352952447       -0.7573660133        0.9516168799
 H         -6.4026889423       -0.1535099450       -1.0561652067
 H         -5.2592790419        0.5708627387       -3.1213210223
 H         -2.7904902905        0.6983027203       -3.1930401290
 H         -1.4667999607        0.1034996661       -1.1935705705
 H         -1.8080773396        0.6210675896        3.1248537902
 H         -3.3614610009        2.6068841034        0.7255102988
 H         -2.1783331188        4.1681523063       -0.7977351004
 H          0.2622021386        4.0529268343       -1.0301038023
 C          1.9847303905        2.2814561980        0.2573103382
 H          2.4811773741        2.5706216303        1.1951033654
 C          2.5952268735        3.0655145393       -0.8854841687
 C          3.0291046439        4.4850600132       -0.6799714828
 C          4.0539021550        3.4025605092       -0.8331942298
 H          4.6266173203        3.3568063485       -1.7471999819
 H          4.6037517722        3.0853434595        0.0412695057
 H          2.8893828853        4.9135129898        0.3009230615
 H          2.9030293848        5.1861286650       -1.4909518633
 H          2.1812110554        2.7876865350       -1.8479151951
 O          0.7505459920        0.6066688033       -1.7277016281
