  62
        -98.94121294
 C         -2.2840429531       -0.6543724068       -0.3010960582
 C         -3.5225563900       -0.9638542204        0.3139019771
 C         -4.3423551024        0.1818009813        0.7273833232
 C         -3.8677566781        1.4278782326        0.5466163306
 C         -4.6160206096        2.6858133107        0.8782527468
 C         -5.4330216449        3.1802058400       -0.3238948286
 C         -6.2882349647        2.0952204229       -0.9784274446
 H         -6.8419726843        2.5658367841       -1.7936551604
 H         -5.6315248573        1.3458772452       -1.4261704437
 C         -7.2721025862        1.4013528382       -0.0261227956
 H         -8.2415371195        1.3205127272       -0.5222412397
 H         -7.4153312233        2.0104345335        0.8671155314
 C         -6.8637711531       -0.0140515737        0.3863106051
 H         -6.6291920373       -0.6020074095       -0.5045669274
 H         -7.7203972945       -0.4866677106        0.8741130828
 C         -5.6770455754       -0.1106948004        1.3534097644
 H         -5.8494115224        0.5385011441        2.2142982622
 H         -5.6206365733       -1.1438565626        1.7085249698
 H         -6.0727087681        3.9999607024        0.0080525934
 H         -4.7417990905        3.5707098353       -1.0742985532
 H         -5.2731407456        2.4984069204        1.7252946391
 H         -3.8913505093        3.4533707954        1.1553420159
 O         -2.6568493931        1.6855286641       -0.0093138427
 C         -1.8369205598        0.6580318509       -0.4541947954
 O         -0.7661424457        1.0461463445       -0.9596955512
 H          1.1550840676       -0.9378252798       -1.3097622502
 C          1.0531883379       -1.3214662492       -0.3070742848
 C         -0.1676610535       -1.8168795122        0.1198746100
 C         -0.2794722268       -2.2791970346        1.4288426666
 C          0.8054146850       -2.2458867422        2.2833828857
 C          2.0241543521       -1.7483105407        1.8542688858
 C          2.1430423609       -1.2766893752        0.5546140134
 N          3.3780675891       -0.7777180939        0.0945511334
 S          4.2494803373        0.2386556496        1.1238886190
 O          4.8912881545       -0.5734478857        2.1282687972
 O          3.4087050929        1.3054203122        1.6210538624
 C          5.4741493032        0.8749574351       -0.0027837365
 C          5.2651273637        2.0985572399       -0.6097041146
 C          6.2121402905        2.5731081230       -1.5038482524
 C          7.3426941119        1.8178978580       -1.7772630992
 C          7.5374799509        0.5906578498       -1.1609366729
 C          6.5958573128        0.1112332039       -0.2645048163
 H          6.7081045218       -0.8312406142        0.2451786606
 H          8.4186214194        0.0078058249       -1.3753291475
 H          8.0774936777        2.1903023353       -2.4734617664
 H          6.0637981300        3.5277673110       -1.9825159566
 H          4.3740627711        2.6539890861       -0.3626242616
 H          3.2801467047       -0.3429524807       -0.8137397111
 H          2.8743742465       -1.7037745235        2.5152041420
 H          0.7044236544       -2.6063283462        3.2963398090
 H         -1.2355412962       -2.6519250738        1.7702022252
 C         -1.3982523074       -1.8041918779       -0.7523191951
 H         -1.9748481048       -2.7149871943       -0.5406904798
 C         -1.1087269657       -1.7432517064       -2.2367314650
 C         -0.5785438339       -2.9592565566       -2.9340493462
 C         -1.9845547677       -2.5054414626       -3.1836444142
 H         -2.2217917098       -2.0585632059       -4.1375050418
 H         -2.7923905735       -3.0841014323       -2.7603043329
 H         -0.4302461210       -3.8472286303       -2.3385455695
 H          0.1507331044       -2.8281817657       -3.7187184447
 H         -0.7558533115       -0.7725541064       -2.5639515473
 O         -3.9229491916       -2.1431240741        0.5057055312
