  62
        -98.94504132
 C         -2.5517645459       -0.1238247816        0.4275477461
 C         -2.3733132612        0.5471773987       -0.8059931123
 C         -2.1592302528        1.9981476795       -0.7208345745
 C         -2.1465295709        2.5939187051        0.4850965901
 C         -1.9420247643        4.0633156636        0.7150411294
 C         -0.4667871709        4.4106257214        0.9515362221
 C          0.4901114979        3.8317714398       -0.0909377520
 H          1.4874224368        4.2102481839        0.1461321324
 H          0.5341884520        2.7456133804        0.0191554819
 C          0.1456720124        4.1841715881       -1.5445173008
 H          1.0688760488        4.4515894231       -2.0628037158
 H         -0.5069463352        5.0580325795       -1.5714045025
 C         -0.4946269389        3.0437501621       -2.3387618051
 H         -0.4434492010        3.2966313002       -3.4013878283
 H          0.0836907681        2.1282806088       -2.1868775769
 C         -1.9626606502        2.7434081371       -2.0103635933
 H         -2.5402531390        3.6704200478       -2.0152931613
 H         -2.3542621221        2.0885853418       -2.7943909109
 H         -0.1721902020        4.0264598940        1.9312053798
 H         -0.3724155620        5.4986430004        0.9699348449
 H         -2.3196541818        4.6112487585       -0.1464200178
 H         -2.5170345006        4.3514232332        1.5973383417
 O         -2.3137481380        1.9142178126        1.6500033418
 C         -2.4950850096        0.5408977693        1.6504749136
 O         -2.6055034922        0.0359943606        2.7887451515
 H         -0.1847683984       -0.9072721902        0.5216554535
 C         -0.3194067605       -1.7932993887       -0.0817832173
 C         -1.5947502105       -2.3180656001       -0.2443797131
 C         -1.7448057960       -3.4699956379       -1.0058748938
 C         -0.6427146227       -4.0656220375       -1.5956171113
 C          0.6216545389       -3.5276352915       -1.4471993112
 C          0.7815718640       -2.3706416746       -0.6903827722
 N          2.0440148865       -1.7666251173       -0.5732471186
 S          2.3364601969       -0.5897781605        0.5896216790
 O          2.0860764761       -1.1119340743        1.9167799603
 O          1.6316358736        0.6124577433        0.2258530931
 C          4.0883292989       -0.3622968734        0.3514506528
 C          4.5220228184        0.5286690910       -0.6115696417
 C          5.8839255018        0.6811358937       -0.8186344454
 C          6.7843792196       -0.0567456792       -0.0647411829
 C          6.3345781057       -0.9453496049        0.9003463537
 C          4.9739319130       -1.1023649171        1.1121475157
 H          4.5781082589       -1.7713099109        1.8594191951
 H          7.0367978678       -1.5146244734        1.4877213301
 H          7.8435983568        0.0640442912       -0.2279083749
 H          6.2369887165        1.3738972986       -1.5653328895
 H          3.7844107362        1.0851940264       -1.1662562282
 H          2.8180774339       -2.4039080289       -0.6927415357
 H          1.4769199585       -3.9867433023       -1.9183046805
 H         -0.7721907414       -4.9616326250       -2.1835770965
 H         -2.7242060372       -3.8997274049       -1.1392564810
 C         -2.7486670013       -1.6279384427        0.4442268640
 H         -2.7374466725       -1.9250470046        1.5045213883
 C         -4.0963896227       -1.9869143895       -0.1497085898
 C         -4.8636848758       -3.1679108027        0.3620864800
 C         -5.3272856953       -1.7788141327        0.6787378260
 H         -6.2179015950       -1.4059546351        0.1958132414
 H         -5.1868677839       -1.4066431931        1.6835885665
 H         -4.4208191287       -3.7453238197        1.1597002930
 H         -5.4417950249       -3.7503652610       -0.3394312740
 H         -4.1570206727       -1.7517923708       -1.2061586495
 O         -2.4041826241       -0.0342710527       -1.9226184210
