  62
        -98.94066359
 C         -1.9605823637       -0.8490975145        0.7150601659
 C         -1.8653271084       -0.1854085716       -0.5338527254
 C         -2.0588533604        1.2700086985       -0.4993731232
 C         -2.2248767794        1.8994301944        0.6763653076
 C         -2.3892405496        3.3820569009        0.8753200894
 C         -3.8257477224        3.8863156884        0.6787187627
 C         -4.3142501433        3.9128294723       -0.7701308007
 H         -5.2431165092        4.4862766015       -0.7840895935
 H         -3.5903232383        4.4480220647       -1.3852108822
 C         -4.5804177693        2.5269345945       -1.3740334746
 H         -4.6578716519        1.7893337792       -0.5719574630
 H         -5.5397149807        2.5348249915       -1.8960831051
 C         -3.5234547298        2.0584237926       -2.3742915493
 H         -3.5243862509        2.7179960006       -3.2447388649
 H         -3.7918089334        1.0542664173       -2.7120143531
 C         -2.0991085296        2.0022158906       -1.8061397651
 H         -1.6974247185        3.0085872325       -1.6883344187
 H         -1.4635207445        1.4551698744       -2.5069090723
 H         -3.8693305197        4.9038811096        1.0736632330
 H         -4.4967252434        3.2676505639        1.2791176786
 H         -2.0861778245        3.5910399794        1.9038128400
 H         -1.7163463951        3.9146151478        0.2022363284
 O         -2.2411672201        1.2351911164        1.8641296636
 C         -2.1118845505       -0.1433500486        1.9098518152
 O         -2.1438937343       -0.6190439030        3.0645653332
 O         -1.6375971210       -0.7647517638       -1.6270479978
 C         -1.7370781195       -2.3480555024        0.8372386974
 C         -0.4952267695       -2.7128388723        0.0603157157
 C         -0.4385444456       -3.7042610398       -0.9091437641
 C          0.7376811703       -3.9329910264       -1.6029963119
 C          1.8667449306       -3.1739650481       -1.3593035562
 C          1.8223558985       -2.1871174234       -0.3797762963
 C          0.6560675017       -1.9845720406        0.3356489844
 H          0.6290633507       -1.2127877312        1.0931612857
 N          2.9537126299       -1.4024323171       -0.0900839838
 S          2.7106603586        0.1960049349        0.3980612629
 O          2.4352279122        0.2093119297        1.8145420669
 O          1.7421943315        0.8512618296       -0.4514345030
 C          4.3400562878        0.8598804615        0.1026969381
 C          4.5999066431        1.5077210088       -1.0902845267
 C          5.8777502918        1.9896337164       -1.3274398727
 C          6.8695735118        1.8134359985       -0.3742478309
 C          6.5936266385        1.1618683856        0.8187507446
 C          5.3178120592        0.6784066547        1.0624237604
 H          5.0523933598        0.1739317968        1.9768536809
 H          7.3660151370        1.0296432321        1.5590193255
 H          7.8631144031        2.1889344609       -0.5612945302
 H          6.0937479169        2.4993441392       -2.2525279655
 H          3.7941343302        1.6288076308       -1.7966943546
 H          3.6641201123       -1.4639828504       -0.8071066523
 H          2.7732107158       -3.3358058982       -1.9225918539
 H          0.7678224682       -4.7003648035       -2.3617463607
 H         -1.3205722651       -4.2768811785       -1.1443131369
 H         -1.5215920989       -2.5133396378        1.9067928656
 C         -2.9483939401       -3.2042852974        0.5010724424
 C         -4.3371330802       -2.6504642572        0.6110135733
 C         -3.7684455240       -2.9850830399       -0.7333450601
 H         -4.1562528335       -3.8512849063       -1.2494333812
 H         -3.4755956101       -2.1791481867       -1.3866246895
 H         -5.1110547124       -3.2834934438        1.0186401101
 H         -4.4374589531       -1.6087116039        0.8805526700
 H         -2.8179092809       -4.2328461768        0.8234895900
