  62
        -98.93875442
 C          1.8776440804        0.6938474506        0.8432014099
 C          2.2144272708       -0.6845061493        0.8053188398
 C          3.6379051510       -1.0058985288        0.6629747999
 C          4.5399789006       -0.0102597485        0.5997358100
 C          6.0321006607       -0.1702882680        0.4886783401
 C          6.5335864409       -0.3836572577       -0.9460205698
 C          6.2273903614       -1.7573888178       -1.5439382000
 H          6.8198275415       -1.8488404875       -2.4565264899
 H          6.5655525416       -2.5342872577       -0.8575274400
 C          4.7487601215       -1.9813268083       -1.8906885001
 H          4.2323774312       -1.0191564184       -1.9255344401
 H          4.6712334217       -2.4212392282       -2.8875279401
 C          4.0040608617       -2.9065460786       -0.9281563002
 H          4.4282238821       -3.9115516184       -0.9842452803
 H          2.9599102418       -2.9621838689       -1.2463316303
 C          4.0286725515       -2.4472697887        0.5355286698
 H          3.2988699916       -3.0391609490        1.0931315297
 H          5.0164535115       -2.6127839184        0.9654078199
 H          6.1085874207        0.3946414222       -1.5840793898
 H          7.6177002108       -0.2489706774       -0.9353339097
 H          6.4725739504        0.7519801321        0.8737973902
 H          6.3587612109       -0.9998752180        1.1164944801
 O          4.1828761302        1.2985021914        0.6537813601
 C          2.8502247101        1.6909706109        0.7505942401
 O          2.6985617296        2.9254997909        0.7475304301
 O          1.3591920211       -1.6052521596        0.9005743697
 C          0.4038318403        1.0209661901        0.9932869498
 C         -0.2814736297        1.2044343399       -0.3364026902
 C          0.2913647101        1.9481278602       -1.3625157201
 C         -0.3820245298        2.1236392501       -2.5579911401
 C         -1.6445673196        1.5879224997       -2.7425608103
 C         -2.2267542695        0.8446106994       -1.7228510204
 C         -1.5320124495        0.6394619195       -0.5391821303
 H         -1.9771041094        0.0380762093        0.2380127596
 N         -3.5049627293        0.2901232090       -1.8693275805
 S         -4.5609174094        0.2943419685       -0.5673149206
 O         -5.8765020993        0.2373629381       -1.1666872407
 O         -4.3060207198        1.4091960785        0.3133020395
 C         -4.2371600489       -1.2458266214        0.2628430993
 C         -3.9066054390       -1.2510877314        1.6032058293
 C         -3.6672131287       -2.4641261514        2.2295701093
 C         -3.7642801382       -3.6438657214        1.5083331092
 C         -4.1017771681       -3.6217397914        0.1633372191
 C         -4.3417589885       -2.4125205014       -0.4683745608
 H         -4.6100797784       -2.3538957414       -1.5100015708
 H         -4.1757321478       -4.5421773614       -0.3931155209
 H         -3.5745866279       -4.5858240613        1.9983513791
 H         -3.4026112187       -2.4827558314        3.2747265293
 H         -3.8370854594       -0.3105965114        2.1277585694
 H         -3.9708639193        0.5151073489       -2.7361514405
 H         -2.1757727296        1.7436761096       -3.6693037203
 H          0.0741311000        2.6999680203       -3.3490044301
 H          1.2612678900        2.3971214205       -1.2096797900
 H         -0.0329901595        0.1228767899        1.4596726197
 C          0.1364273498        2.1878738499        1.9345500699
 C         -0.2711261606        3.5499475898        1.4696951100
 C         -1.2628526804        2.6753754994        2.1733502898
 H         -1.5503804905        2.9326049992        3.1820248398
 H         -2.0636631602        2.2515259792        1.5839206797
 H          0.1413609791        4.4015673099        1.9887312601
 H         -0.3944209606        3.7098505798        0.4101174400
 H          0.7904410798        2.1580952501        2.8009754499
