  62
        -98.93811012
 C         -1.9857114502       -0.9957745255        0.1299135006
 C         -2.3991686769        0.2568276244       -0.3771119356
 C         -3.7416049753        0.7283576773        0.0247742344
 C         -4.4796693231       -0.0340851660        0.8522894509
 C         -5.8731329948        0.2189434322        1.3631449599
 C         -6.9521392982       -0.0518461606        0.3022399975
 C         -6.6383964984        0.4950246000       -1.0877975853
 H         -5.6951953049        0.0700069101       -1.4356181939
 H         -7.4212454313        0.1459281978       -1.7663269178
 C         -6.5773053667        2.0172057369       -1.1893977215
 H         -6.4374639062        2.2666745592       -2.2443916832
 H         -7.5354982556        2.4363100593       -0.8741782430
 C         -5.4634050415        2.6969280786       -0.3901322262
 H         -5.7165458917        2.7557190660        0.6650144946
 H         -5.3891307116        3.7281150753       -0.7480617866
 C         -4.0814699843        2.0754348947       -0.5666278081
 H         -3.8566347402        2.0015324178       -1.6368309438
 H         -3.3332734325        2.7692772416       -0.1638234531
 H         -7.0741859978       -1.1341184825        0.2138135898
 H         -7.8960722232        0.3660270509        0.6561493370
 H         -6.0288422915       -0.4664269525        2.1992665877
 H         -5.9521161279        1.2316187597        1.7473276271
 O         -4.0322489023       -1.2314324033        1.3280923147
 C         -2.7929020140       -1.7360077539        0.9962564973
 O         -2.5239762635       -2.8345239474        1.5224434312
 H          0.8999107999        0.4722803533       -1.2103625551
 C          1.1176608380        0.2669250931       -0.1745440286
 C          0.4327634300       -0.7403636928        0.4868647995
 C          0.7126583428       -0.9659391537        1.8315595681
 C          1.6529768506       -0.2009030087        2.4962751721
 C          2.3331206380        0.8063105406        1.8339203249
 C          2.0539203807        1.0433996687        0.4949947943
 N          2.7556146068        2.0574931088       -0.1853086066
 S          4.4266469063        1.9578828400       -0.1205313297
 O          4.8953535324        2.5126108023        1.1247872797
 O          4.9023142760        2.6093512023       -1.3206889174
 C          4.7680756921        0.2069372971       -0.1706900560
 C          5.3034696515       -0.4233355088        0.9335939600
 C          5.4986303169       -1.7947336529        0.8929250930
 C          5.1502945360       -2.5085006020       -0.2429240341
 C          4.6149110426       -1.8602138621       -1.3455444740
 C          4.4192374827       -0.4895982868       -1.3109886375
 H          4.0103761910        0.0459476560       -2.1526783210
 H          4.3442412088       -2.4180706951       -2.2276676152
 H          5.2965500472       -3.5768227305       -0.2705596699
 H          5.9157731518       -2.3017819006        1.7480108449
 H          5.5563677797        0.1690398799        1.7976045034
 H          2.4377548339        2.1950512487       -1.1338702676
 H          3.0707445337        1.4143170279        2.3324907640
 H          1.8597231553       -0.3893260662        3.5387441417
 H          0.1738197025       -1.7465654723        2.3506063587
 C         -0.6196083454       -1.5774645694       -0.1978176551
 H         -0.6052486761       -2.5754370911        0.2598423250
 C         -0.3992821523       -1.7218382030       -1.6897519360
 C          0.7746495051       -2.5155854871       -2.1778080185
 C         -0.6144609256       -3.0544857648       -2.3382061498
 H         -1.0473633288       -3.0814940676       -3.3271170914
 H         -0.9222131275       -3.8744407423       -1.7059038619
 H          1.2965650333       -2.1746677596       -3.0588632171
 H          1.4124823336       -2.9661901129       -1.4325478207
 H         -0.6895777791       -0.8448968551       -2.2545238150
 O         -1.6973901075        0.9657140979       -1.1465638666
