  62
        -98.94412101
 C          2.0225520632        1.2776913377       -0.0933456038
 C          2.4133553075        0.2405117328       -0.9743990374
 C          3.8262721811       -0.1620531580       -0.9018774041
 C          4.6510584921        0.4653072452       -0.0442430760
 C          6.0957928533        0.1192339777        0.1674073411
 C          6.2598418130       -0.9107987905        1.2937601298
 C          5.3339079438       -2.1204138921        1.1643815011
 H          5.5599227709       -2.7933217104        1.9944318550
 H          4.2987450330       -1.7938999436        1.2895633169
 C          5.4667252105       -2.8826373520       -0.1614931235
 H          6.4105538216       -2.6256488205       -0.6438658168
 H          5.4929005222       -3.9533789060        0.0517015368
 C          4.3167294090       -2.6529312190       -1.1440604355
 H          3.3624224044       -2.8192289725       -0.6371883623
 H          4.3972182563       -3.3974288527       -1.9407692050
 C          4.2742516282       -1.2719672843       -1.8105546954
 H          5.2482461934       -1.0442949994       -2.2483673977
 H          3.5362306002       -1.3158318367       -2.6169082542
 H          7.2986809012       -1.2455023674        1.3071090187
 H          6.0488169594       -0.4191615043        2.2462092109
 H          6.5106432233       -0.2712954092       -0.7597168663
 H          6.6315211135        1.0302176115        0.4395035672
 O          4.2426762086        1.4677511684        0.7745323300
 C          2.9224396515        1.8823928747        0.7874263163
 O          2.6762650197        2.7872408449        1.6095234265
 H         -1.0526971766        0.0029946695       -1.3835155533
 C         -1.0506208818       -0.1609191808       -0.3178339746
 C         -0.2760481747        0.6435783432        0.5026330668
 C         -0.2747100763        0.3934210863        1.8720901881
 C         -1.0301381049       -0.6343355291        2.4049501633
 C         -1.7999260248       -1.4384672523        1.5819166437
 C         -1.7992134960       -1.2021306039        0.2145219522
 N         -2.5954110421       -2.0097781027       -0.6250632214
 S         -4.2403987147       -1.9621264695       -0.3065668908
 O         -4.5248074998       -2.7663559325        0.8548129918
 O         -4.8896728534       -2.3639704032       -1.5340047631
 C         -4.5599028008       -0.2429642627        0.0458809151
 C         -4.6927365993        0.1749153048        1.3541999054
 C         -4.8479136912        1.5276531676        1.6118042920
 C         -4.8617242459        2.4336437051        0.5629400461
 C         -4.7295890848        1.9974903488       -0.7465767147
 C         -4.5719972447        0.6469119597       -1.0098983497
 H         -4.4718084520        0.2692317008       -2.0149009410
 H         -4.7430023548        2.7056415310       -1.5594507542
 H         -4.9769682974        3.4867594924        0.7660081809
 H         -4.9514300709        1.8702238482        2.6287820388
 H         -4.6767712810       -0.5618986145        2.1401949381
 H         -2.4252070439       -1.8433348074       -1.6068103798
 H         -2.4007329054       -2.2423076351        1.9760306382
 H         -1.0200879123       -0.8129095772        3.4695120536
 H          0.3341732516        1.0164746714        2.5129142145
 C          0.5815811757        1.7601712603       -0.0397083622
 H          0.5681261500        2.5806056088        0.6899298880
 C          0.1123470457        2.2903692511       -1.3788091740
 C         -1.1721997808        3.0592966654       -1.4500666002
 C          0.1365761398        3.7661694118       -1.6321715750
 H          0.4031410009        4.1142206400       -2.6189706522
 H          0.4908376771        4.4037871520       -0.8355025579
 H         -1.8058656522        2.9241516390       -2.3131108138
 H         -1.7112623019        3.2122220091       -0.5274065824
 H          0.3636813791        1.6416527551       -2.2087827473
 O          1.6343235972       -0.3227108638       -1.7874276434
