  62
        -98.94018868
 C         -2.6478997193        1.3297932987        0.0489254740
 C         -2.5331682614        0.1756748225        0.8601673676
 C         -3.7702149904       -0.5954413157        1.0516523653
 C         -4.9107497455       -0.1671695072        0.4801547183
 C         -6.2276479631       -0.8835568696        0.5500180242
 C         -6.3968663479       -1.8497514705       -0.6308261233
 C         -5.1927509433       -2.7639772642       -0.8577631958
 H         -5.4364299595       -3.4215844302       -1.6950336584
 H         -4.3361122291       -2.1589930517       -1.1643925002
 C         -4.8009917677       -3.6118729167        0.3604776988
 H         -5.6313184250       -3.6523304346        1.0664143504
 H         -4.6073827568       -4.6339138686        0.0281244581
 C         -3.5417951619       -3.1353823432        1.0873831007
 H         -2.7287078307       -3.0035522650        0.3681262363
 H         -3.2343689882       -3.9193978274        1.7848093264
 C         -3.6867382368       -1.8378651403        1.8927670468
 H         -4.5481356563       -1.9125702610        2.5596724948
 H         -2.7861308927       -1.7257331065        2.5037848182
 H         -7.2877089204       -2.4557551592       -0.4563992888
 H         -6.5566774651       -1.2631114947       -1.5384005623
 H         -6.2898863603       -1.4275911752        1.4903452852
 H         -7.0255501764       -0.1398897990        0.5164720161
 O         -4.9839843624        0.9570804519       -0.2772016061
 C         -3.8568781621        1.7228008989       -0.5250277835
 O         -4.0560940435        2.7120918931       -1.2584950674
 H          1.2003584563        1.7321628989        0.5114393881
 C          0.9214516503        1.2078880134       -0.3893956517
 C         -0.3626750252        1.3356232301       -0.8910390321
 C         -0.6940605006        0.6413694289       -2.0520650022
 C          0.2352692177       -0.1610846738       -2.6838642466
 C          1.5183099390       -0.2875048355       -2.1785948076
 C          1.8590873293        0.3967271712       -1.0205793127
 N          3.1691690718        0.3164904644       -0.5044146286
 S          3.9098026574       -1.1839654585       -0.2826413753
 O          4.0006851925       -1.8561727636       -1.5535492231
 O          3.2653910101       -1.9206657278        0.7834699966
 C          5.5293895187       -0.6467858785        0.2312701092
 C          6.3685087962       -0.1026912702       -0.7224472962
 C          7.6228028359        0.3409323546       -0.3357318947
 C          8.0149305162        0.2339466111        0.9906586091
 C          7.1621130354       -0.3153468535        1.9358313811
 C          5.9050884960       -0.7597050809        1.5555980802
 H          5.2110046564       -1.1982413591        2.2547599639
 H          7.4702035832       -0.3991837970        2.9656554486
 H          8.9920394513        0.5795059128        1.2894488555
 H          8.2895691539        0.7679748510       -1.0674005547
 H          6.0240611561       -0.0457751321       -1.7416157161
 H          3.2508404946        0.8372666466        0.3598764364
 H          2.2446300726       -0.9223547225       -2.6578360795
 H         -0.0382105635       -0.6960975148       -3.5813848896
 H         -1.6971206135        0.7360328243       -2.4472135116
 C         -1.4235966618        2.1833444181       -0.2315184954
 H         -1.7448353356        2.9477863616       -0.9536170368
 C         -0.9650124884        2.8735794515        1.0356948910
 C         -0.1935216510        4.1558889136        0.9566402614
 C         -1.6149914812        4.1641225417        1.4308610659
 H         -1.8103467295        4.3430343886        2.4775633602
 H         -2.3754803105        4.5575000552        0.7720599963
 H          0.0148628713        4.5525977515       -0.0253980625
 H          0.5870615611        4.3353411074        1.6806313719
 H         -0.7231595667        2.1743388376        1.8282061264
 O         -1.4565635801       -0.1912519088        1.4013196163
