  62
        -98.94359005
 C         -1.8144557842       -0.8310687037        0.8283762571
 C         -2.0385098010       -0.4141322640       -0.5059203535
 C         -3.4421220591       -0.4064624587       -0.9435540921
 C         -4.4023193712       -0.8056085207       -0.0895934729
 C         -5.8731690809       -0.7968012518       -0.3881538639
 C         -6.5180349308        0.5297689275        0.0373010921
 C         -5.7673952423        1.7672603324       -0.4548902022
 H         -6.3292581159        2.6422781086       -0.1207994348
 H         -4.7898883485        1.8087634927        0.0312341043
 C         -5.5778217639        1.8316603262       -1.9768326743
 H         -5.8125700932        2.8428798837       -2.3158533211
 H         -6.2795420370        1.1553047744       -2.4662947199
 C         -4.1576218504        1.5203407550       -2.4529363752
 H         -4.0820605082        1.8070845386       -3.5051930516
 H         -3.4417846605        2.1300059878       -1.8955440508
 C         -3.7249013785        0.0525993898       -2.3462459277
 H         -4.4722920684       -0.5871937667       -2.8196776248
 H         -2.7825252781       -0.0556868329       -2.8907997927
 H         -6.5540363387        0.5629265690        1.1287553448
 H         -7.5432742784        0.5511441995       -0.3366689248
 H         -6.0235834340       -0.9607955763       -1.4533403480
 H         -6.3415858180       -1.6120462116        0.1658364301
 O         -4.1436533005       -1.2218472917        1.1770642402
 C         -2.8497949756       -1.2303913047        1.6723234340
 O         -2.7535022920       -1.6058699240        2.8587804377
 H          2.0914893134       -0.1345539535        0.4470694677
 C          1.5008908262        0.7087030986        0.7615424825
 C          0.2229882417        0.5165629945        1.2608155827
 C         -0.5047600929        1.6292663960        1.6759262769
 C          0.0273393210        2.8993443255        1.5737713653
 C          1.3013193978        3.0876044792        1.0665656438
 C          2.0409022116        1.9842267727        0.6603179569
 N          3.3206753155        2.1453423514        0.1154957311
 S          4.5150764681        1.0035988186        0.3476649118
 O          4.4642645835        0.4369107350        1.6753967768
 O          5.7414083531        1.6917058482        0.0032936827
 C          4.1969363317       -0.2556423714       -0.8703124319
 C          4.4874022584       -1.5687869051       -0.5566140368
 C          4.2730304124       -2.5506437444       -1.5110560721
 C          3.7751785047       -2.2033220219       -2.7572747647
 C          3.4928700842       -0.8795640996       -3.0578889125
 C          3.7083045887        0.1073473894       -2.1093792762
 H          3.4915302971        1.1432358371       -2.3098555941
 H          3.1012686564       -0.6135266014       -4.0265439917
 H          3.6041164164       -2.9690668467       -3.4974821067
 H          4.4919783414       -3.5810191977       -1.2791524936
 H          4.8623183143       -1.7948768447        0.4292089392
 H          3.6799894051        3.0880664612        0.1146833937
 H          1.7170970593        4.0801454747        0.9823541143
 H         -0.5521386085        3.7523444275        1.8941752420
 H         -1.4996460710        1.4826683249        2.0752436214
 C         -0.4006187243       -0.8527157415        1.3798788493
 H         -0.4917507039       -1.0931694293        2.4496316615
 C          0.4012268144       -1.9444960348        0.7018352793
 C          1.5292200699       -2.6159699618        1.4237947773
 C          0.2490001412       -3.3557560309        1.1805091287
 H          0.2432116527       -4.1505465058        0.4500941718
 H         -0.4139472576       -3.5258093907        2.0166391604
 H          2.4019731118       -2.9029222365        0.8571030889
 H          1.7477975478       -2.2870825905        2.4287908611
 H          0.5001132777       -1.7854246198       -0.3660823386
 O         -1.1180778084       -0.0662255577       -1.2897540731
