  62
        -98.94514194
 C         -1.5306750395       -0.7581612834       -0.5200116296
 C         -2.8293377955       -1.3152843360       -0.5790171793
 C         -3.9346421576       -0.3508678857       -0.6211122717
 C         -3.6696976118        0.9685176652       -0.6220653655
 C         -4.6878263056        2.0744846611       -0.6926293525
 C         -5.2962308862        2.4517300002        0.6649629182
 C         -6.2788774494        1.4323941066        1.2425561545
 H         -6.7888971074        1.9160648481        2.0780864807
 H         -7.0354593024        1.1938116790        0.4943474908
 C         -5.6247379473        0.1382989734        1.7464765638
 H         -6.0303176023       -0.1168665255        2.7281683688
 H         -4.5519089506        0.2991953325        1.8757204084
 C         -5.8373976996       -1.0740597086        0.8397857646
 H         -6.8998963884       -1.3254301010        0.8069949206
 H         -5.3044488186       -1.9243866551        1.2731797590
 C         -5.3356373640       -0.8834257622       -0.5977318481
 H         -5.3289191494       -1.8588240209       -1.0905720285
 H         -6.0055035239       -0.2203060876       -1.1448153528
 H         -5.8245966874        3.3988641620        0.5336071638
 H         -4.4848310063        2.6194270438        1.3768934735
 H         -5.4834726069        1.7969909798       -1.3845975831
 H         -4.1690184094        2.9487103288       -1.0914092395
 O         -2.4044192106        1.4635602409       -0.5776475597
 C         -1.3045467701        0.6188209232       -0.5036986166
 O         -0.2097147806        1.2046453719       -0.4348660000
 O         -3.0540097858       -2.5558454421       -0.5941626066
 C         -0.3290962487       -1.6833462334       -0.4715248218
 C          0.5108383079       -1.3780329043        0.7430944244
 C         -0.1089795981       -1.2710733768        1.9860574573
 C          0.6224283994       -0.9634806810        3.1160402360
 C          1.9867774058       -0.7448620995        3.0316836363
 C          2.6176211263       -0.8663010298        1.8001603481
 C          1.8821673032       -1.1959826356        0.6691965131
 H          2.4010080654       -1.3088910399       -0.2667486355
 N          3.9993001558       -0.6714270796        1.6854376915
 S          4.6871099305       -0.1207808839        0.2691490152
 O          4.7531790229       -1.1894060110       -0.6967602551
 O          5.9633075426        0.4196823410        0.6887792687
 C          3.6484701750        1.1947532750       -0.3387617417
 C          3.1931064822        1.1526408740       -1.6397688872
 C          2.4084290347        2.1919427074       -2.1102541702
 C          2.0914370497        3.2491798138       -1.2740045729
 C          2.5586489245        3.2785371599        0.0298346783
 C          3.3465256608        2.2440236606        0.5047994403
 H          3.7271998213        2.2430904763        1.5135135028
 H          2.3035539176        4.1009717257        0.6788339114
 H          1.4692733260        4.0509269406       -1.6390069620
 H          2.0371940518        2.1683552956       -3.1228564103
 H          3.4558635093        0.3065741750       -2.2557084466
 H          4.4563553636       -0.3014943568        2.5049565527
 H          2.5577056385       -0.4887321974        3.9108959329
 H          0.1263340406       -0.8814765213        4.0715343525
 H         -1.1774917843       -1.4263012639        2.0512583198
 H         -0.7394211878       -2.6989322050       -0.3675588345
 C          0.4440246514       -1.5976787521       -1.7708180468
 C          1.2536361227       -2.7641499987       -2.2499025117
 C         -0.0164539606       -2.3933251189       -2.9536388334
 H          0.0466485020       -1.9449324091       -3.9337532090
 H         -0.8801554921       -3.0280427201       -2.8189071424
 H          2.1965112424       -2.5734541117       -2.7409808673
 H          1.2540384769       -3.6555128701       -1.6407125640
 H          0.8255810213       -0.5993294596       -1.9568849527
