  62
        -98.94175162
 C          1.7039855759        0.4777806334       -0.2768023384
 C          2.8227759204        1.2905264909        0.0429431296
 C          4.1387861606        0.7575682045       -0.3244144716
 C          4.2266540070       -0.4447518838       -0.9207747258
 C          5.4925178848       -1.1141375634       -1.3830046179
 C          6.2316387180       -1.8829597313       -0.2792379726
 C          6.9379901228       -1.0109983563        0.7596846272
 H          7.5749250314       -0.2864050246        0.2513389147
 H          7.5901100445       -1.6679632847        1.3386654237
 C          5.9910850653       -0.2815468208        1.7229213921
 H          6.3567666878       -0.3922848000        2.7462630048
 H          5.0034917308       -0.7471808094        1.6841717363
 C          5.8434659616        1.2160750878        1.4540511944
 H          6.8015001655        1.7140830258        1.6186678808
 H          5.1246432388        1.6237409619        2.1692243760
 C          5.3516754961        1.5587747569        0.0417150560
 H          6.1481473887        1.3955589819       -0.6840795976
 H          5.0711967497        2.6147564597        0.0234613515
 H          6.9816847040       -2.5105285606       -0.7662257520
 H          5.5203682383       -2.5439442531        0.2216059117
 H          6.1604822954       -0.3718561758       -1.8211393773
 H          5.2022633002       -1.8234714084       -2.1611946632
 O          3.1339654407       -1.2044861385       -1.1930027965
 C          1.8500945219       -0.7815061601       -0.8609861880
 O          0.9659856135       -1.6120965886       -1.1396956930
 O          2.7243175925        2.4103840819        0.6104066285
 C          0.3308663514        1.0084219517        0.0950377015
 C         -0.4812868009       -0.0532186437        0.7901583153
 C         -0.0899863052       -0.4764224428        2.0581298158
 C         -0.7994432452       -1.4545452568        2.7267450779
 C         -1.9282735246       -2.0158751130        2.1552916225
 C         -2.3251344291       -1.6027793953        0.8896283230
 C         -1.6027210077       -0.6278125446        0.2145379779
 H         -1.9018193410       -0.3619645822       -0.7847282289
 N         -3.4625802870       -2.1514622662        0.2844757918
 S         -4.4151263472       -1.2317456431       -0.7265799499
 O         -5.7180324961       -1.8603655107       -0.6580980525
 O         -3.8365974006       -1.1404010390       -2.0431991107
 C         -4.4843614782        0.3879999208        0.0214492883
 C         -4.1623129690        1.4986103995       -0.7310841214
 C         -4.2163042983        2.7508688306       -0.1395881925
 C         -4.5875283377        2.8696439651        1.1904910911
 C         -4.9147706576        1.7449014455        1.9323359569
 C         -4.8657421074        0.4914224698        1.3446404634
 H         -5.1218629316       -0.3996263972        1.8939409219
 H         -5.2056712855        1.8412236523        2.9658784907
 H         -4.6225370798        3.8446575536        1.6502553192
 H         -3.9643048066        3.6265500183       -0.7166486224
 H         -3.8711388407        1.3596946991       -1.7601905549
 H         -3.9992186190       -2.7861558085        0.8556897812
 H         -2.4868861724       -2.7785383913        2.6760806204
 H         -0.4784428112       -1.7787412012        3.7051987230
 H          0.7893527004       -0.0347364034        2.5069308573
 H          0.5398313235        1.8072769580        0.8262406345
 C         -0.4200018600        1.6632710091       -1.0543644890
 C          0.3084223896        2.3822071627       -2.1487938651
 C         -0.4149861742        1.1039815188       -2.4440301030
 H         -1.3297436859        1.1433139260       -3.0183010610
 H          0.1632386936        0.2109745111       -2.6242164716
 H         -0.1051904402        3.3072118521       -2.5210032266
 H          1.3883648192        2.3624739868       -2.1286935055
 H         -1.3493468514        2.1131197855       -0.7173352590
