  62
        -98.94545107
 C         -2.3584998327       -1.0158878323        0.1296736287
 C         -1.8877212769       -0.0874157928       -0.8306687628
 C         -2.4875662225        1.2515366966       -0.7630546673
 C         -3.4386080471        1.5165979815        0.1510645650
 C         -4.1604817873        2.8259295988        0.3228116340
 C         -3.4066078160        3.8466664168        1.1865059801
 C         -2.1757677699        4.4725522107        0.5292131482
 H         -2.4518820920        4.8755292212       -0.4455254058
 H         -1.8709906812        5.3133746972        1.1554944251
 C         -0.9856817319        3.5147127483        0.3742098149
 H         -1.1290203471        2.6509248839        1.0282293872
 H         -0.0710025711        4.0141906221        0.7024851784
 C         -0.7496425392        3.0227926333       -1.0540076801
 H          0.0884142292        2.3213727754       -1.0418107504
 H         -0.4776292760        3.8681456686       -1.6892865339
 C         -1.9513537212        2.3060716310       -1.6829198409
 H         -2.7300398855        3.0239207795       -1.9388345795
 H         -1.6138702209        1.8099410282       -2.5957653655
 H         -3.1147315756        3.3646097377        2.1227412132
 H         -4.1079626133        4.6475884209        1.4314911016
 H         -5.1092130165        2.5959492017        0.8125819092
 H         -4.3706764918        3.2596583551       -0.6550593032
 O         -3.8779987520        0.5880790737        1.0428074665
 C         -3.3351820506       -0.6876021088        1.0688869733
 O         -3.7981632448       -1.4250072612        1.9638186508
 O         -1.0131339219       -0.3568706462       -1.6932781768
 C         -1.8078303094       -2.4280496204        0.1478707413
 C         -0.3009008925       -2.4423953493        0.2508060445
 C          0.4681574386       -3.4388737699       -0.3390246764
 C          1.8438069425       -3.4462815034       -0.1906033999
 C          2.4848214322       -2.4608047862        0.5367253552
 C          1.7290202159       -1.4498326028        1.1167395914
 C          0.3476220710       -1.4569411424        0.9830099424
 H         -0.2372328011       -0.6751225991        1.4523213452
 N          2.3583880225       -0.4389299421        1.8613600243
 S          3.7767313101        0.2737559584        1.3375199770
 O          4.8469906987       -0.6892863214        1.4124550729
 O          3.9182740419        1.4507006717        2.1642018654
 C          3.5141904367        0.7551466223       -0.3587714832
 C          2.9521596663        1.9916580186       -0.6060883434
 C          2.7316889397        2.3792918392       -1.9176846837
 C          3.0591011272        1.5199173380       -2.9548652836
 C          3.6209283457        0.2809540194       -2.6903386931
 C          3.8574905620       -0.1063917343       -1.3812231107
 H          4.3113165812       -1.0531749525       -1.1418357818
 H          3.8771652199       -0.3846213809       -3.4987750657
 H          2.8777374074        1.8198630068       -3.9748497515
 H          2.3034319512        3.3465355752       -2.1260226524
 H          2.7146582109        2.6323604691        0.2283175456
 H          1.7253720658        0.2575372043        2.2242000520
 H          3.5535751129       -2.4631371487        0.6746029802
 H          2.4260226995       -4.2326151687       -0.6463657066
 H         -0.0123778179       -4.2144962686       -0.9123245461
 H         -2.2132652567       -2.9029280728        1.0543072302
 C         -2.3193148485       -3.1839985822       -1.0643976265
 C         -2.6521254034       -4.6421964690       -0.9737989864
 C         -3.7500156853       -3.6286073553       -1.0836216165
 H         -4.3012141650       -3.5582744348       -2.0093276886
 H         -4.3437368834       -3.4176809899       -0.2056161293
 H         -2.4521619342       -5.2712238441       -1.8283138595
 H         -2.5122691839       -5.1313069788       -0.0214468816
 H         -1.8996016672       -2.8096958831       -1.9912108217
