  62
        -98.94070012
 C         -2.3064463704       -1.0516804809       -0.0570271002
 C         -2.0184928605        0.2499328591       -0.5346719202
 C         -2.7396282505        1.3475205390        0.1238932098
 C         -3.5687340305        1.0921112490        1.1510089198
 C         -4.3442237505        2.1095592290        1.9428397499
 C         -5.6716904405        2.5275925089        1.2952363999
 C         -5.5417983306        3.4195961689        0.0599335599
 H         -4.9011861606        4.2704175189        0.2939118699
 H         -6.5373924706        3.8113160389       -0.1575367500
 C         -5.0111331506        2.7000122689       -1.1878097501
 H         -5.6238509307        2.9686201789       -2.0512143201
 H         -5.1045539306        1.6200626389       -1.0525261601
 C         -3.5610302806        3.0303476490       -1.5410012901
 H         -3.4802812307        4.0863014190       -1.8081565901
 H         -3.2779476007        2.4383338490       -2.4149055602
 C         -2.5557752706        2.7322284090       -0.4208735602
 H         -2.6497721106        3.4692295590        0.3763818998
 H         -1.5471385006        2.7946126991       -0.8365896602
 H         -6.2444216105        3.0705142189        2.0506399200
 H         -6.2326704605        1.6264310789        1.0371612700
 H         -3.7253025205        2.9914123790        2.1116948599
 H         -4.5621801504        1.6489145489        2.9088824799
 O         -3.7854390504       -0.1676625310        1.6131953798
 C         -3.1822459704       -1.2590723110        1.0144326398
 O         -3.5010184303       -2.3547788910        1.5186077198
 O         -1.2068408805        0.5139096091       -1.4625324703
 C         -1.6764134604       -2.3127938309       -0.6321163503
 C         -0.2789304504       -2.4869664609       -0.0864111603
 C          0.0105099897       -3.4985946909        0.8216025597
 C          1.2830385997       -3.6270033408        1.3508491396
 C          2.2911425997       -2.7511931908        0.9886019796
 C          2.0080428696       -1.7324966408        0.0884344196
 C          0.7351772296       -1.6121922208       -0.4488280703
 H          0.5152918895       -0.8048677808       -1.1317119103
 N          3.0220817696       -0.8198790607       -0.2882381604
 S          3.6700661296        0.0922200193        0.9803710595
 O          4.4527482796       -0.7820484507        1.8167679895
 O          2.6241705496        0.8383575093        1.6488369196
 C          4.7422855595        1.1951854793        0.0815055595
 C          6.0201815495        0.7754063494       -0.2338204005
 C          6.8406276194        1.6201469594       -0.9642969906
 C          6.3717880994        2.8621122694       -1.3658566005
 C          5.0865037394        3.2694312794       -1.0415105105
 C          4.2603720394        2.4287734393       -0.3122399005
 H          3.2567610894        2.7073969993       -0.0314603804
 H          4.7242327793        4.2358678894       -1.3533719405
 H          7.0119058793        3.5184779295       -1.9339147406
 H          7.8407894994        1.3081464595       -1.2180257406
 H          6.3428667196       -0.1945168106        0.1061543294
 H          2.6669261295       -0.1740650107       -0.9837514904
 H          3.2800430697       -2.8280300107        1.4099706595
 H          1.4922954598       -4.4162343408        2.0573621896
 H         -0.7768201102       -4.1724802509        1.1281479897
 H         -2.2865542303       -3.1450112009       -0.2567103402
 C         -1.6957638904       -2.3492103209       -2.1477402503
 C         -1.5286073804       -3.6660948109       -2.8418179503
 C         -2.8595370504       -2.9772001510       -2.8508811202
 H         -3.2058652505       -2.5319659010       -3.7715018502
 H         -3.6509500704       -3.3873456310       -2.2401946002
 H         -0.9586399005       -3.6966396809       -3.7575686103
 H         -1.4170814904       -4.5447155809       -2.2245189603
 H         -1.2524218805       -1.4764830009       -2.6078203503
