  62
        -98.93949490
 C         -2.6353135132       -1.2098655804        0.2563053594
 C         -2.5286048085       -0.1665120658       -0.6965986760
 C         -3.7276059315        0.6719724845       -0.8637086357
 C         -4.8277661175        0.4128083879       -0.1356166037
 C         -6.0937878459        1.2175742038       -0.1724164280
 C         -6.0723083786        2.3335818832        0.8814830653
 C         -4.7928274082        3.1702421325        0.8697937296
 H         -4.9044757829        3.9448119543        1.6316710581
 H         -3.9521176032        2.5414578081        1.1722841673
 C         -4.4739605381        3.8245187875       -0.4817699054
 H         -5.3691861409        3.8434293668       -1.1044525958
 H         -4.1786577787        4.8612537394       -0.3073151196
 C         -3.3328059478        3.1607378400       -1.2549485079
 H         -3.0473522608        3.8244058185       -2.0754421419
 H         -2.4616019001        3.0524911056       -0.6037303460
 C         -3.6497716821        1.7897117057       -1.8653452127
 H         -2.8293456617        1.5302933617       -2.5408777736
 H         -4.5704921578        1.8498612498       -2.4493150751
 H         -6.9348301102        2.9815473110        0.7153690161
 H         -6.1745938923        1.8785158039        1.8694370138
 H         -6.9317917133        0.5499995244        0.0354297047
 H         -6.2191065969        1.6434940298       -1.1659625149
 O         -4.8928105208       -0.5974539283        0.7692094034
 C         -3.7987054368       -1.4127563482        1.0039768919
 O         -3.9817656711       -2.2693052101        1.8920265473
 O         -1.4993618421        0.0640428574       -1.3812457978
 C         -1.4704676988       -2.1353204991        0.5664768790
 C         -0.2037602709       -1.3323153961        0.7311313625
 C         -0.1032248373       -0.4598168764        1.8114482872
 C          1.0348308692        0.2990614910        2.0047104505
 C          2.0988356197        0.2056853441        1.1245270642
 C          2.0097664598       -0.6612704974        0.0449102901
 C          0.8667957147       -1.4285188434       -0.1425877329
 H          0.8041387693       -2.0821437687       -0.9988286226
 N          3.0790450136       -0.7474315696       -0.8613309720
 S          4.6299530090       -0.9607469955       -0.2646377323
 O          5.3642572411       -1.5974515879       -1.3365497945
 O          4.6177227596       -1.6535519012        1.0031859013
 C          5.2449326265        0.6962651074       -0.0492771767
 C          5.2193342356        1.5470534426       -1.1368744083
 C          5.7084442401        2.8351997371       -0.9902843512
 C          6.2148467830        3.2475916206        0.2333639486
 C          6.2357504243        2.3806578881        1.3150797643
 C          5.7470120674        1.0909430924        1.1751956965
 H          5.7390223749        0.3839520461        1.9895802722
 H          6.6296969296        2.7032965272        2.2654629696
 H          6.5956405593        4.2506293118        0.3443024437
 H          5.6931211544        3.5124543070       -1.8290843155
 H          4.8205197376        1.1880462947       -2.0709536008
 H          2.9009509926       -1.3502327822       -1.6510738311
 H          2.9886986627        0.7972558307        1.2659153116
 H          1.0947557762        0.9727651976        2.8462425896
 H         -0.9371946509       -0.3817912909        2.4965327405
 H         -1.7142455314       -2.5767611885        1.5470487856
 C         -1.3220935740       -3.3003807054       -0.4009695574
 C         -2.5254691737       -3.9228425055       -1.0419133275
 C         -1.5413741288       -3.1625327964       -1.8765889240
 H         -0.8993445175       -3.7209118755       -2.5429570113
 H         -1.8236920729       -2.1926248967       -2.2537882138
 H         -2.5596607872       -4.9980337609       -1.1338209055
 H         -3.4863939011       -3.4712243276       -0.8423867465
 H         -0.5385285753       -3.9842971052       -0.0868213317
