  62
        -98.93581191
 C          2.2436228600        0.1660040388        0.3354821995
 C          3.3525001902        0.7552718692       -0.3227046199
 C          4.4494345502       -0.1629763906       -0.6660796403
 C          4.3388200101       -1.4767274808       -0.4045090212
 C          5.3607364901       -2.5348413906       -0.7211526818
 C          6.4662402499       -2.6683094114        0.3353540684
 C          7.4859271299       -1.5287623114        0.3579878994
 H          7.8795958102       -1.3754718407       -0.6472404204
 H          8.3163143298       -1.8551024519        0.9873057093
 C          6.9420202799       -0.2026653618        0.9077530202
 H          7.6581761097        0.2187006977        1.6169000106
 H          6.0178716298       -0.3893467322        1.4599710699
 C          6.6764559101        0.8629565990       -0.1557407791
 H          7.6183468602        1.1535222393       -0.6261169487
 H          6.2605991100        1.7444552886        0.3387781914
 C          5.6957470803        0.4289765998       -1.2529179096
 H          6.1743383705       -0.2814811298       -1.9262421200
 H          5.4059898105        1.3146180002       -1.8233274090
 H          6.9991335599       -3.6003205412        0.1331897078
 H          5.9991380597       -2.7596693221        1.3188440082
 H          5.8081212903       -2.3335281099       -1.6948270715
 H          4.8195362301       -3.4818748205       -0.7753533726
 O          3.2353930800       -2.0124812912        0.1850340582
 C          2.1850832899       -1.2067569214        0.5902588585
 O          1.2637407198       -1.8240219518        1.1652020079
 O          3.4435645003        1.9730088594       -0.6188002290
 C          1.0437244799        0.9648675085        0.8165146398
 C          0.0059933502        1.1017129893       -0.2682346503
 C          0.3451596804        1.5407880501       -1.5444733099
 C         -0.6247030494        1.6586060309       -2.5228403400
 C         -1.9437715894        1.3419519507       -2.2505209405
 C         -2.2950868897        0.9105450198       -0.9762906709
 C         -1.3186845499        0.7916360491        0.0033558292
 H         -1.5984463001        0.4329298984        0.9824970089
 N         -3.6384696598        0.6368821396       -0.6663276114
 S         -4.0101309400       -0.5929531611        0.4289737877
 O         -3.7430675103       -0.1204288321        1.7640111781
 O         -3.3656389900       -1.8256109609        0.0346599569
 C         -5.7718542600       -0.7045837809        0.1774504172
 C         -6.2888127699       -1.7269369103       -0.5951625136
 C         -7.6585208698       -1.7848762401       -0.8009263539
 C         -8.4824997399       -0.8228555405       -0.2366381934
 C         -7.9488634100        0.1970920589        0.5374580374
 C         -6.5808847801        0.2597422587        0.7487656777
 H         -6.1221897502        1.0268462183        1.3503993884
 H         -8.5930727801        0.9414944786        0.9767717578
 H         -9.5477760399       -0.8699897604       -0.3986225737
 H         -8.0763628397       -2.5786922797       -1.3988813746
 H         -5.6098668398       -2.4565553101       -1.0067563740
 H         -4.2183749196        0.5688481602       -1.4921500416
 H         -2.6980552693        1.4317513513       -3.0175343606
 H         -0.3496687792        1.9973941016       -3.5103822897
 H          1.3727251805        1.7934019003       -1.7564900595
 H          0.5951771897        0.3549794079        1.6181857393
 C          1.4314541398        2.3033930980        1.4332997608
 C          1.0968696800        3.6269632585        0.8211716017
 C          0.3732269797        3.1701176876        2.0496345712
 H          0.5846710396        3.6547411369        2.9908808416
 H         -0.6524987502        2.8493999577        1.9388946208
 H          1.8284238800        4.4152823284        0.9104778224
 H          0.5595756402        3.6357598191       -0.1136460484
 H          2.3779804197        2.2441755876        1.9611995710
