  62
        -98.93878060
 C         -2.7572747541       -0.6355842622       -0.1104177805
 C         -2.3656916910        0.2796057868       -1.1205440165
 C         -2.5841830329        1.7046515946       -0.8096635766
 C         -3.1454301788        2.0563678133        0.3595252041
 C         -3.3777959360        3.4665050706        0.8179829313
 C         -2.1878028449        3.9936255958        1.6309215767
 C         -0.8314811608        3.7840299677        0.9568184637
 H         -0.6038600875        2.7160020000        0.9112340118
 H         -0.0763401258        4.2428248659        1.5990357987
 C         -0.7255560115        4.3737113382       -0.4560842970
 H          0.2316345621        4.8909818350       -0.5477653198
 H         -1.5126912611        5.1130022771       -0.6124779526
 C         -0.7738264169        3.3314454904       -1.5752630782
 H         -0.0643072365        2.5292329469       -1.3542364955
 H         -0.4484530841        3.8105765492       -2.5033011536
 C         -2.1491504280        2.7056275072       -1.8426260120
 H         -2.0846429684        2.1534407084       -2.7851548206
 H         -2.8977421889        3.4935069264       -1.9557763165
 H         -2.1735232651        3.4807314363        2.5953618662
 H         -2.3421136566        5.0589230469        1.8135249114
 H         -3.5487783730        4.1007071062       -0.0496859597
 H         -4.2694508681        3.4780606155        1.4474025730
 O         -3.5406047683        1.1484785853        1.2896050561
 C         -3.3273214812       -0.2035829883        1.0901143071
 O         -3.7015408762       -0.9239034526        2.0387023646
 H         -0.1665405730       -0.8111549099       -0.1749906330
 C         -0.1355895949       -1.6891956079        0.4519777587
 C         -1.2618784344       -2.4905079707        0.5690452499
 C         -1.2014724787       -3.6132548366        1.3860894507
 C         -0.0331014033       -3.9303405578        2.0563060279
 C          1.0912980701       -3.1360701115        1.9267294686
 C          1.0353225603       -1.9984111244        1.1274095631
 N          2.1419681357       -1.1413512117        1.0280779202
 S          2.3284889353       -0.1824351709       -0.3485537449
 O          1.4469694526        0.9508996374       -0.2463310031
 O          2.2206712383       -0.9993426807       -1.5361023977
 C          4.0161948567        0.3467153700       -0.1244862634
 C          4.2688036409        1.4656973539        0.6458039417
 C          5.5827751048        1.8580199949        0.8470029515
 C          6.6163995508        1.1282813804        0.2789524792
 C          6.3475531094        0.0087339859       -0.4941917765
 C          5.0357488580       -0.3888670216       -0.6989719556
 H          4.7781873012       -1.2446550811       -1.3021950394
 H          7.1528578488       -0.5540852822       -0.9379056705
 H          7.6379444104        1.4358233648        0.4371027271
 H          5.7950918087        2.7301128371        1.4440896434
 H          3.4321351870        2.0049152939        1.0588953796
 H          3.0098892903       -1.5722108903        1.3146576739
 H          2.0018999578       -3.3826271548        2.4508728529
 H          0.0030572933       -4.8059626181        2.6864788474
 H         -2.0814104042       -4.2282355697        1.5050101057
 C         -2.5229034413       -2.1366709142       -0.1805895999
 H         -3.3650382892       -2.5965300103        0.3633103385
 C         -2.5340234552       -2.7046711993       -1.5915785185
 C         -1.2881343433       -3.0278970758       -2.3540912930
 C         -2.1540645873       -4.1352812229       -1.8378325984
 H         -2.7360422319       -4.7063077549       -2.5452850723
 H         -1.7848835119       -4.7079936806       -1.0008343783
 H         -0.3356335701       -2.8428708673       -1.8799197480
 H         -1.2823555741       -2.8140215838       -3.4120355411
 H         -3.3619560231       -2.3138477006       -2.1739731271
 O         -1.8747956436       -0.0445923928       -2.2320730547
