  62
        -98.94296350
 C          1.8701833102        0.6086585805        0.0875730793
 C          2.9053353603        0.7552915220        1.0409734689
 C          4.2688985602        0.8005076315        0.5021575486
 C          4.4631535000        0.7291646996       -0.8275274813
 C          5.7930377199        0.7773551989       -1.5298703416
 C          6.5100219402       -0.5780965711       -1.5987714398
 C          7.0999848805       -1.0707380791       -0.2766230991
 H          7.7537462606       -1.9130641993       -0.5116005981
 H          7.7221334304       -0.2871811984        0.1569620196
 C          6.0562780507       -1.5293058679        0.7514963217
 H          5.1019538706       -1.7032698787        0.2486900821
 H          6.3663556609       -2.4824977372        1.1858386430
 C          5.8355382807       -0.5549316263        1.9086808303
 H          5.0522787409       -0.9609210955        2.5542451610
 H          6.7503820408       -0.4749104753        2.5000214401
 C          5.4084197104        0.8533593831        1.4745145384
 H          6.2546839102        1.3872315426        1.0429215575
 H          5.0655808604        1.3955197942        2.3592399277
 H          5.8112714302       -1.3232817918       -1.9861724286
 H          7.3243652300       -0.4797442220       -2.3202719100
 H          5.5937944497        1.1133839074       -2.5496408620
 H          6.4393454099        1.5080226797       -1.0428996527
 O          3.4381734299        0.6186860882       -1.7139291710
 C          2.1212187000        0.5361464686       -1.2831025907
 O          1.2885707499        0.4070881671       -2.1995930403
 O          2.6990339305        0.8416084637        2.2820448288
 C          0.4355659903        0.5370245909        0.5707286096
 C         -0.2307411595       -0.7548523098        0.1633221215
 C          0.5147911707       -1.9261180498        0.0643361931
 C         -0.0798068092       -3.1157609604       -0.3084074952
 C         -1.4389036892       -3.1717386210       -0.5605929849
 C         -2.1995656094       -2.0169308310       -0.4361652964
 C         -1.5945105196       -0.8180082204       -0.0844790782
 H         -2.2033658297        0.0671610696        0.0006796807
 N         -3.5850454794       -2.0362698716       -0.6678736861
 S         -4.5915364494       -1.3223118101        0.4672570930
 O         -4.0172892492       -1.3763087282        1.7913289430
 O         -5.8664663293       -1.9879881706        0.2996285641
 C         -4.7628004698        0.3687245691       -0.0602145794
 C         -4.9163587100        0.6395938272       -1.4056035697
 C         -5.1032741303        1.9530872066       -1.8053825015
 C         -5.1431497703        2.9664652279       -0.8592775630
 C         -4.9921313901        2.6771456298        0.4880731374
 C         -4.7999306798        1.3655761604        0.8941130792
 H         -4.6666428996        1.0973684819        1.9298490096
 H         -5.0207120101        3.4656440209        1.2232310963
 H         -5.2905497006        3.9877463674       -1.1736756844
 H         -5.2177455605        2.1828978751       -2.8525130718
 H         -4.8802547000       -0.1718306838       -2.1130089186
 H         -3.9472170493       -2.9341222220       -0.9561848748
 H         -1.9064583491       -4.1014997115       -0.8480199135
 H          0.5182563009       -4.0106867004       -0.3947290140
 H          1.5751013507       -1.8924228293        0.2746359429
 H          0.4955666905        0.5525441625        1.6703155696
 C         -0.3249908400        1.7647523701        0.1089298180
 C         -1.3742500300        2.3910383312        0.9759629273
 C         -0.0544356201        3.0741344611        0.7859470061
 H         -0.0164232604        3.9688177703        0.1832159648
 H          0.6490361800        3.0692160124        1.6058674460
 H         -2.2440154701        2.8181872403        0.5000159868
 H         -1.5755062997        1.9306910925        1.9319217679
 H         -0.4735057102        1.7771232786       -0.9650390920
