  62
        -98.93991284
 C          1.7913492069       -1.2339131778        0.2026395708
 C          1.0660048832       -1.9769036305        1.1678857637
 C         -0.0376938122       -2.7973604522        0.6569532874
 C         -0.2744129573       -2.8469761937       -0.6663567745
 C         -1.3306361348       -3.6732210528       -1.3493750154
 C         -2.7212353196       -3.0247139048       -1.3856581899
 C         -3.4565819885       -2.9890454454       -0.0457299638
 H         -4.4928657334       -2.7162894226       -0.2537749021
 H         -3.4638162578       -3.9864730811        0.3950525324
 C         -2.8778291157       -1.9843292506        0.9595415312
 H         -3.6856782016       -1.4067646150        1.4158793025
 H         -2.2433122300       -1.2640836849        0.4384313692
 C         -2.0731486044       -2.6046092951        2.1019358999
 H         -1.6639401622       -1.7844201528        2.6990717503
 H         -2.7350959144       -3.1920424495        2.7430048398
 C         -0.9111836476       -3.4997184990        1.6508615522
 H         -0.2995396943       -3.7327863968        2.5262766252
 H         -1.2947984526       -4.4310864240        1.2335469543
 H         -2.6274968837       -2.0066144423       -1.7698562099
 H         -3.3267614016       -3.5963456572       -2.0925075704
 H         -1.3971025640       -4.6482580587       -0.8655358158
 H         -0.9922369487       -3.8182466767       -2.3775375110
 O          0.4706072368       -2.1529912683       -1.5649578325
 C          1.4879238673       -1.2938362212       -1.1583649974
 O          2.0183680544       -0.6698722037       -2.0926274861
 O          1.3362858061       -1.9589202505        2.3992916365
 C          2.8708356634       -0.2777747135        0.7000053201
 C          2.4622667575        1.1078596333        0.2619910417
 C          3.0046936449        1.8659008801       -0.7677728111
 C          2.4497042887        3.0888356812       -1.1087420144
 C          1.3258454696        3.5711335954       -0.4658043273
 C          0.7615429444        2.8178193229        0.5574693882
 C          1.3492422834        1.6200610088        0.9275896023
 H          0.8994493194        1.0468555007        1.7262761209
 N         -0.4027812854        3.2510434569        1.2223492344
 S         -1.7147230270        2.2162005819        1.3270272759
 O         -2.7905378521        3.0437064469        1.8278178015
 O         -1.3738306906        1.0640541910        2.1181779984
 C         -2.0684472026        1.7432136877       -0.3560471958
 C         -3.1046796773        2.3646125553       -1.0253373005
 C         -3.3460862252        2.0305348655       -2.3481846297
 C         -2.5401799495        1.0975936648       -2.9834729232
 C         -1.4991049671        0.4870256573       -2.3010411471
 C         -1.2637264014        0.8063939407       -0.9729323751
 H         -0.4640354061        0.3391393749       -0.4182400173
 H         -0.8568612326       -0.2311259938       -2.7880009028
 H         -2.7213826382        0.8415196584       -4.0154295899
 H         -4.1566632955        2.5007148350       -2.8811778215
 H         -3.7030121282        3.0855985101       -0.4921893282
 H         -0.7177473268        4.1675208932        0.9359977274
 H          0.8837073472        4.5128665142       -0.7536092844
 H          2.8907455645        3.6630634202       -1.9092949485
 H          3.8432697530        1.5069757828       -1.3354915120
 H          2.7585544121       -0.2999491896        1.7967931453
 C          4.2618370591       -0.8297206040        0.4332323054
 C          4.9694782941       -0.8352113809       -0.8864935859
 C          5.4878492367        0.0106207944        0.2387167821
 H          6.3970707444       -0.3033517356        0.7298931683
 H          5.3693589535        1.0807594071        0.1868232757
 H          5.5221108012       -1.7267494059       -1.1476232602
 H          4.4793116036       -0.3797380738       -1.7306516858
 H          4.3996425468       -1.7297277026        1.0292601196
