  62
        -98.93650203
 C         -2.2385772001       -1.3856941507        0.3973666278
 C         -2.4295720015       -0.4925207316       -0.6813501817
 C         -3.3145076296        0.6634649923       -0.4323286889
 C         -3.8737896022        0.8098700850        0.7821666127
 C         -4.8024394948        1.8926536442        1.2709727186
 C         -5.9431468614        2.2959117976        0.3237554106
 C         -5.7686979249        3.6916166566       -0.2768139604
 H         -6.7503046659        4.0728890554       -0.5665311211
 H         -5.3759225724        4.3561704802        0.4955758985
 C         -4.8660782047        3.7591732028       -1.5075271384
 H         -4.7121788818        4.8138290799       -1.7475316248
 H         -5.3793314928        3.3042744556       -2.3574395962
 C         -3.4990363776        3.0879422711       -1.3563794982
 H         -2.8239173646        3.5352598172       -2.0894297916
 H         -3.0759970613        3.2942345522       -0.3736068469
 C         -3.5235548343        1.5735568617       -1.6117949122
 H         -4.4569765435        1.2951377716       -2.1101130632
 H         -2.7206692481        1.3078630710       -2.3070527107
 H         -6.8709226988        2.2897046450        0.8979751633
 H         -6.0473620016        1.5543034056       -0.4666840757
 H         -5.2147119759        1.5105046205        2.2076135739
 H         -4.2061718621        2.7714137878        1.5291923116
 O         -3.6276841087       -0.0586688119        1.8058641028
 C         -2.8114630193       -1.1633402299        1.6475375721
 O         -2.6716923176       -1.8546680063        2.6775049949
 H          0.0979274572       -0.7750649883        1.4645541107
 C          0.6500969178       -1.2031398272        0.6357131000
 C          0.0460276623       -2.1870593833       -0.1377652652
 C          0.7628617961       -2.7282215417       -1.1961645268
 C          2.0429571914       -2.2807697034       -1.4755607162
 C          2.6380851015       -1.2987998859       -0.7055935453
 C          1.9318479729       -0.7541737440        0.3593270883
 N          2.5331316595        0.2317793698        1.1627597923
 S          3.2162159227        1.5647881835        0.4007720860
 O          3.1851156886        2.6197139765        1.3911621215
 O          2.5715706114        1.8477130810       -0.8604374851
 C          4.9065188076        1.0734178918        0.1320439331
 C          5.4369590501        1.0958558721       -1.1429241956
 C          6.7567580782        0.7129504686       -1.3262177675
 C          7.5182873191        0.3176222354       -0.2371452571
 C          6.9712226441        0.3035184013        1.0374225087
 C          5.6529809645        0.6857544329        1.2276276588
 H          5.1907873675        0.6927050823        2.2006477445
 H          7.5665504791       -0.0041766564        1.8819356928
 H          8.5444862475        0.0192012512       -0.3824759208
 H          7.1837318102        0.7240206004       -2.3161901724
 H          4.8047028831        1.4059114760       -1.9597915636
 H          1.9524406976        0.5291689463        1.9337879429
 H          3.6329252523       -0.9462081723       -0.9231332796
 H          2.5856541898       -2.7045038981       -2.3066961112
 H          0.3161654551       -3.4924555482       -1.8102537420
 C         -1.3568473207       -2.6100868386        0.2265905139
 H         -1.3180480927       -3.0936050169        1.2139315934
 C         -1.9806929966       -3.5717443919       -0.7626785946
 C         -1.7101345714       -5.0416575851       -0.6573290554
 C         -3.0566961507       -4.4990445364       -0.2864085222
 H         -3.8932591967       -4.6970639949       -0.9395253056
 H         -3.3222617480       -4.4533458810        0.7600343592
 H         -1.0621334486       -5.3745979268        0.1391552741
 H         -1.6246585470       -5.6168637419       -1.5667667940
 H         -2.0947687392       -3.1379726025       -1.7493077116
 O         -1.8884480336       -0.6480392319       -1.8073115851
