  62
        -98.93171072
 C         -1.5847262758       -0.1945359245       -1.0766840854
 C         -1.8679276612       -1.1081487313       -0.0338166918
 C         -1.1901201629       -2.4160870730       -0.1112704152
 C         -0.3155805024       -2.6513340158       -1.1030769831
 C          0.4553672722       -3.9109482625       -1.4166829064
 C          1.0410994467       -4.7097034437       -0.2472398310
 C          1.5607962642       -3.8637653235        0.9241574230
 H          2.5805892196       -4.1722521413        1.1638700230
 H          1.5972999533       -2.8065455097        0.6531073022
 C          0.7115905579       -4.0078420741        2.1884029593
 H          0.4463308214       -5.0589698076        2.3268986343
 H          1.3126082818       -3.7007653064        3.0478483438
 C         -0.5557944012       -3.1562110034        2.1981184780
 H         -0.2750867546       -2.0991496256        2.2178759550
 H         -1.1010821991       -3.3658061773        3.1220156578
 C         -1.5004543907       -3.3730706037        1.0033588078
 H         -1.4782822869       -4.4072788948        0.6665764294
 H         -2.5166461027       -3.1346071109        1.3292784216
 H          0.2957616862       -5.4111245926        0.1252453741
 H          1.8587593488       -5.3075069551       -0.6545351326
 H         -0.1971425222       -4.5659419708       -2.0025650833
 H          1.2640140068       -3.5913335862       -2.0790843103
 O         -0.0299732175       -1.7164515243       -2.0556459572
 C         -0.6416392274       -0.4754288537       -2.0615206950
 O         -0.2651520263        0.2792073370       -2.9825883541
 H          0.1856639883        1.5034671874       -0.2456249511
 C         -0.5003244563        1.8760706786        0.5026323218
 C         -1.8691271602        1.8347083022        0.2413064343
 C         -2.7229870538        2.3343783752        1.2146829532
 C         -2.2177900270        2.8265923995        2.4084820781
 C         -0.8636117804        2.8084792027        2.6792712877
 C          0.0041665373        2.3152189784        1.7116822351
 N          1.3914113232        2.2494898954        1.9231431083
 S          2.2044156034        0.8909406804        1.3681264764
 O          1.3693786307       -0.2856804828        1.3941468781
 O          3.4030478237        0.8325248087        2.1815239984
 C          2.6750736559        1.2896003062       -0.3004729409
 C          2.6810314196        0.2858756388       -1.2475071322
 C          3.0790499772        0.5828364297       -2.5406393466
 C          3.4678721822        1.8738298455       -2.8604559262
 C          3.4645628766        2.8702360482       -1.8959546770
 C          3.0677851631        2.5787951233       -0.6009899565
 H          3.0458256882        3.3278235439        0.1729932295
 H          3.7659555390        3.8735277401       -2.1510976465
 H          3.7705488983        2.1033045579       -3.8699428936
 H          3.0684818926       -0.1907829971       -3.2913919828
 H          2.3534993308       -0.7024151524       -0.9634802567
 H          1.6944744437        2.5115497807        2.8501910314
 H         -0.4810507503        3.1586043383        3.6258907967
 H         -2.9017010535        3.2065167492        3.1526053248
 H         -3.7891055544        2.3268517002        1.0804213220
 C         -2.2110158017        1.1970694131       -1.0851809313
 H         -1.6479090969        1.7560427687       -1.8517683163
 C         -3.6355904480        1.1064458284       -1.6070902846
 C         -4.8471716384        0.7830692168       -0.7907379447
 C         -4.6992670019        2.1439761899       -1.4056082795
 H         -5.3281707160        2.3842189415       -2.2503175036
 H         -4.4825869226        2.9904417568       -0.7752380312
 H         -5.5714349866        0.1058679521       -1.2207665848
 H         -4.7190386707        0.6469660915        0.2703043010
 H         -3.6098535905        0.6532528966       -2.5965145950
 O         -2.6610846727       -0.8616679627        0.9091673335
