  62
        -98.94304664
 C         -1.9575084788        0.6141921352       -0.8202511543
 C         -2.8722218571        1.1726999789        0.1064513169
 C         -4.2454540746        0.6533066451        0.0397728833
 C         -4.5719738308       -0.2824835739       -0.8684415974
 C         -5.9324173326       -0.8943609051       -1.0646694290
 C         -6.2344438250       -2.0615939340       -0.1148048757
 C         -6.4966516031       -1.6665400641        1.3391198175
 H         -7.2604363536       -0.8888940796        1.3706174824
 H         -6.9062944467       -2.5458257388        1.8403351131
 C         -5.2502085630       -1.1987494392        2.1034732766
 H         -5.2221465754       -1.6808356412        3.0832873373
 H         -4.3528588984       -1.5154626244        1.5664711477
 C         -5.1800503055        0.3101279262        2.3383421926
 H         -6.0024335104        0.6183304384        2.9877049254
 H         -4.2419631287        0.5326969392        2.8526856126
 C         -5.2286796370        1.1511950966        1.0562126372
 H         -6.2367972700        1.1498998543        0.6427342286
 H         -4.9541891075        2.1780315786        1.3091560046
 H         -7.1226659852       -2.5704231720       -0.4966550752
 H         -5.4030480909       -2.7693320806       -0.1562752958
 H         -6.6991954934       -0.1268833170       -0.9554247354
 H         -5.9591762772       -1.2693397000       -2.0901459733
 O         -3.6700267344       -0.7812085435       -1.7556034339
 C         -2.3514433337       -0.3610005717       -1.7418780151
 O         -1.6340343190       -0.9153544391       -2.6003223457
 O         -2.5862843492        2.0597298692        0.9519636046
 C         -0.4926788380        1.0204226678       -0.8903600416
 C          0.3093449096        0.3243331361        0.1835034043
 C          0.1035604277        0.5871203911        1.5346874099
 C          0.8400894404       -0.0777128680        2.4971522450
 C          1.8077779620       -0.9987104705        2.1346794014
 C          2.0225344324       -1.2676045919        0.7889597305
 C          1.2695309231       -0.6109638704       -0.1755785810
 H          1.4367879479       -0.8441512275       -1.2167840558
 N          3.0022157392       -2.1964301162        0.3865396306
 S          4.1866232526       -1.6827898483       -0.6797323315
 O          3.6086300280       -1.4118077968       -1.9703519562
 O          5.2021129435       -2.7107599879       -0.6306112858
 C          4.8038654145       -0.1791190001        0.0546152781
 C          4.1686187991        1.0148587692       -0.2219876444
 C          4.5962547272        2.1653142660        0.4214071764
 C          5.6468974775        2.1027971121        1.3237278234
 C          6.2782424240        0.8964565284        1.5872684036
 C          5.8502170334       -0.2584564355        0.9529502453
 H          6.3142136879       -1.2163306074        1.1244618306
 H          7.0976044329        0.8521281402        2.2865295428
 H          5.9757665392        3.0006522291        1.8227188857
 H          4.1030834058        3.1017712038        0.2160827832
 H          3.3570178425        1.0255795705       -0.9306129243
 H          3.4305403125       -2.6924075155        1.1558137329
 H          2.3866670984       -1.5133552153        2.8868151148
 H          0.6648201253        0.1288589821        3.5419745888
 H         -0.6538946332        1.3000595359        1.8208470454
 H         -0.1333270690        0.6538870004       -1.8619560381
 C         -0.2918090656        2.5226897053       -0.8440257958
 C          0.9219076246        3.1155889995       -1.4909177032
 C         -0.4296489815        3.3141246747       -2.1079183045
 H         -0.8857177490        4.2912630783       -2.0568711623
 H         -0.6614414363        2.7718694010       -3.0137465642
 H          1.3976078333        3.9604798343       -1.0175460956
 H          1.6053462245        2.4436695379       -1.9892695440
 H         -0.6546097143        2.9801148182        0.0662772387
