  62
        -98.93426534
 C          2.2707328374        1.4750792786        0.1104783796
 C          2.7974490374        0.6354440083        1.1258283295
 C          3.5449101293       -0.5495871237        0.6844422057
 C          3.6930003886       -0.7730036975       -0.6334125093
 C          4.3495681054       -1.9760341090       -1.2485765760
 C          3.3843070339       -3.1783167758       -1.2068697676
 C          3.8417973544       -4.3252061129       -0.3044662120
 H          2.9913419852       -4.9990827321       -0.1804309207
 H          4.6325711553       -4.8812548657       -0.8126300360
 C          4.3662109043       -3.9232148675        1.0773643926
 H          4.4006723682       -4.8332595459        1.6799014624
 H          5.3940952813       -3.5681358621        0.9901820191
 C          3.5436282254       -2.8671059525        1.8270076848
 H          2.5117773492       -2.8590190393        1.4728992068
 H          3.5148570348       -3.1443767176        2.8827052696
 C          4.1168902560       -1.4393796606        1.7525805651
 H          5.2042217357       -1.4862374839        1.6473563367
 H          3.8976495244       -0.9244011353        2.6924167424
 H          2.4041645931       -2.8221731733       -0.8792646623
 H          3.2488672922       -3.5714744389       -2.2159114515
 H          4.5934168983       -1.7217250713       -2.2803528492
 H          5.2707266271       -2.2052029920       -0.7174864389
 O          3.1806412722        0.0544659336       -1.5790052412
 C          2.4401930440        1.1816094426       -1.2419755652
 O          2.0139189427        1.8073278880       -2.2320300217
 O          2.6517158085        0.8768142969        2.3541943165
 C          1.4671281383        2.6774092282        0.5783362042
 C          0.0128963027        2.2977551817        0.6919550908
 C         -0.6981567581        2.4866092994        1.8704910793
 C         -2.0178659444        2.0797618354        1.9708172148
 C         -2.6507542853        1.4686530750        0.9026726014
 C         -1.9468016220        1.2750295479       -0.2783160498
 C         -0.6315928815        1.6957715401       -0.3807786727
 H         -0.0913364662        1.5370110546       -1.3033666976
 N         -2.5746107466        0.6065935977       -1.3606536047
 S         -2.6352402767       -1.0654491220       -1.1339157147
 O         -1.4803234289       -1.5383313872       -0.4006391493
 O         -2.8355866044       -1.6329634146       -2.4493651920
 C         -4.1099056947       -1.2821197462       -0.1627329474
 C         -5.3276438462       -1.0327469384       -0.7655789566
 C         -6.4851642781       -1.1728316637       -0.0168826012
 C         -6.4049730948       -1.5573662061        1.3135512083
 C         -5.1746673215       -1.8064069731        1.9027547623
 C         -4.0125320427       -1.6676071536        1.1596258622
 H         -3.0332902554       -1.8444497084        1.5752031168
 H         -5.1141764522       -2.1048847140        2.9369861604
 H         -7.3069295190       -1.6641803314        1.8952254261
 H         -7.4436759737       -0.9809253981       -0.4713647991
 H         -5.3411067879       -0.7420630680       -1.8027612968
 H         -2.1016636744        0.7826831063       -2.2379541947
 H         -3.6756518353        1.1429599614        0.9745583063
 H         -2.5566860401        2.2324681046        2.8931611595
 H         -0.2020403970        2.9364273606        2.7179443855
 H          1.8359608603        2.8808221079        1.5960108620
 C          1.7034222294        3.9307725767       -0.2515470802
 C          0.6652670667        4.5499841644       -1.1342155211
 C          1.0503506418        5.2212755174        0.1476524361
 H          1.6303652947        6.1303649000        0.1051641014
 H          0.3402056131        5.1845888263        0.9599550130
 H          0.9968607074        4.9758955832       -2.0688834480
 H         -0.3043174845        4.0809587642       -1.1930147196
 H          2.7274426730        3.9918856179       -0.6055424215
