  62
        -98.94220854
 C         -2.0213115737       -0.5301053809        0.4568410075
 C         -1.4930912502        0.5452529551        1.2043445961
 C         -1.7399931908        1.9077507448        0.6963485216
 C         -2.4294373682        2.0531324481       -0.4499577334
 C         -2.7916448186        3.3251024073       -1.1709115614
 C         -1.6086115005        3.9337286999       -1.9385817948
 C         -0.2934575451        3.9726569746       -1.1650070914
 H         -0.0066024275        2.9539469673       -0.8949153341
 H          0.4788037429        4.3428345282       -1.8456928296
 C         -0.2927127315        4.8682154226        0.0722507870
 H         -0.5440516971        5.8884063057       -0.2275327632
 H          0.7294326261        4.8782195624        0.4598149485
 C         -1.2275267085        4.4513623786        1.2104026537
 H         -2.2563193147        4.7297226919        0.9986006468
 H         -0.9288967364        5.0168368375        2.0979847922
 C         -1.1479294041        2.9754804502        1.5847357287
 H         -0.0948467213        2.7050570532        1.7252796865
 H         -1.6168935782        2.8354195522        2.5662735753
 H         -1.8826130221        4.9437526894       -2.2502395195
 H         -1.4428434961        3.3340136227       -2.8372059120
 H         -3.2099662627        4.0446359015       -0.4730456343
 H         -3.5730943190        3.0641800423       -1.8884803221
 O         -2.8969150736        0.9842750618       -1.1558139904
 C         -2.6848923838       -0.3199652958       -0.7505634241
 O         -3.1418828937       -1.1795933623       -1.5293759704
 O         -0.8290660612        0.3811834500        2.2654164291
 C         -1.7413576516       -1.9543764422        0.9109788400
 C         -0.8090070229       -2.5741413370       -0.1009443971
 C         -1.0950054900       -3.7113597397       -0.8421419856
 C         -0.2161357104       -4.1370371850       -1.8246657341
 C          0.9410691621       -3.4327928724       -2.0999797424
 C          1.2446671991       -2.3007900953       -1.3487548611
 C          0.3885106513       -1.9087718856       -0.3356853377
 H          0.6215187190       -1.0335552306        0.2487595033
 N          2.4090181227       -1.5627933513       -1.5942545210
 S          2.5220713358        0.0748601520       -1.2592901112
 O          1.2411412680        0.7379944205       -1.3005638467
 O          3.5194434525        0.5542781321       -2.1944075123
 C          3.2270550405        0.1035790935        0.3759039311
 C          4.5363711602       -0.3210745122        0.5036233970
 C          5.1215934776       -0.3322602781        1.7583907378
 C          4.3911206083        0.0789300958        2.8638051024
 C          3.0808534772        0.5060421222        2.7199058861
 C          2.4909286270        0.5211287682        1.4649557324
 H          1.4678101049        0.8393123823        1.3335097040
 H          2.5029489187        0.8223686585        3.5737047859
 H          4.8440412684        0.0678257624        3.8426618186
 H          6.1416782993       -0.6619278829        1.8723294657
 H          5.0701439603       -0.6216356532       -0.3824792693
 H          2.9135949642       -1.8184533798       -2.4294372741
 H          1.6029698726       -3.7479275120       -2.8922609777
 H         -0.4497542469       -5.0186109757       -2.4025047287
 H         -2.0112599289       -4.2512323588       -0.6691234609
 H         -1.2039051206       -1.8585422993        1.8655333834
 C         -3.0179099010       -2.7319844077        1.1384778743
 C         -3.0098041763       -3.9296112244        2.0396994627
 C         -3.6827641491       -2.6652991117        2.4795971402
 H         -4.7613912604       -2.6393119979        2.5180608078
 H         -3.2047382715       -2.0686095309        3.2426413778
 H         -3.6282476296       -4.7750724456        1.7794086100
 H         -2.0738091978       -4.1946563510        2.5073833627
 H         -3.6583633507       -2.7512894531        0.2643732796
