  62
        -98.93835678
 C          1.7893680091        0.0224009042        0.1281860479
 C          2.9019384501        0.9008383429        0.1325854762
 C          4.1501367464        0.3469401242       -0.4169631507
 C          4.1730647247       -0.8963467980       -0.9271556224
 C          5.3595599227       -1.5791369364       -1.5518569482
 C          6.3029372500       -2.2435636135       -0.5398294315
 C          7.1515107350       -1.2789409832        0.2896184878
 H          7.9140453437       -1.8756757813        0.7942683562
 H          7.6681942308       -0.5866871864       -0.3759157260
 C          6.3639430901       -0.4903390649        1.3452382723
 H          5.3998538546       -0.9745569079        1.5171685076
 H          6.9054327073       -0.5103225312        2.2937901639
 C          6.1238327406        0.9774098618        0.9914496323
 H          7.0794903970        1.5045481365        0.9469736852
 H          5.5273374835        1.4291328137        1.7882456261
 C          5.3839297136        1.1946843220       -0.3348856069
 H          5.0722778820        2.2408407042       -0.3857298617
 H          6.0469528334        0.9855661496       -1.1740927540
 H          5.7110420087       -2.8743414411        0.1274200510
 H          6.9765838781       -2.8947572596       -1.1016059019
 H          4.9600915092       -2.3537707362       -2.2099587417
 H          5.9181255635       -0.8638925750       -2.1563093243
 O          3.0718918997       -1.6939900233       -0.9511920613
 C          1.8727469526       -1.2658390323       -0.4083040960
 O          0.9589559134       -2.1139383932       -0.4600553747
 H         -2.1567852856       -0.1081045055        0.1540509399
 C         -1.7703974232        0.6853999013       -0.4667732261
 C         -0.4414301950        1.0634438766       -0.3469853501
 C          0.0469942513        2.0667313890       -1.1772820047
 C         -0.7835444879        2.6748040635       -2.1009600118
 C         -2.1166947637        2.3156728784       -2.1959498886
 C         -2.6152277379        1.3168638663       -1.3685304967
 N         -3.9601123690        0.9269696914       -1.4307211495
 S         -4.7815630715        0.5946809670       -0.0083016626
 O         -6.1750410403        0.8086364888       -0.3339133464
 O         -4.2578060848        1.3653763097        1.0943526802
 C         -4.5122529935       -1.1427928642        0.2637731861
 C         -4.8196521488       -2.0200375734       -0.7572360012
 C         -4.6286939686       -3.3768502876       -0.5531471538
 C         -4.1388568646       -3.8310682076        0.6621467679
 C         -3.8387355928       -2.9377780988        1.6786849669
 C         -4.0272677776       -1.5791305454        1.4804952837
 H         -3.8000975620       -0.8501078142        2.2428757344
 H         -3.4556789915       -3.2923629285        2.6222028166
 H         -3.9881443977       -4.8875601633        0.8185076924
 H         -4.8593331034       -4.0758964323       -1.3408520245
 H         -5.2004801837       -1.6293580802       -1.6860717255
 H         -4.5264864271        1.4516068423       -2.0813960436
 H         -2.7672018800        2.8040685067       -2.9056812524
 H         -0.3926242640        3.4495302590       -2.7434516794
 H          1.0779202537        2.3723998114       -1.0842136934
 C          0.4270407523        0.3953902856        0.6874528055
 H         -0.0519127031       -0.5642202835        0.9411242824
 C          0.5083568777        1.2052311765        1.9749759146
 C          0.2107744352        2.6686788506        2.0552856424
 C         -0.7434413432        1.6809350915        2.6526848516
 H         -0.8044703044        1.6081851870        3.7284521978
 H         -1.6876943787        1.5300489073        2.1484483011
 H         -0.0844557325        3.1789102244        1.1520475958
 H          0.8235269086        3.2691914104        2.7101485914
 H          1.3002103448        0.8439252919        2.6241454254
 O          2.8797429293        2.0832326776        0.5576344616
