  62
        -98.94451895
 C         -1.9459064139       -1.3537371130        0.0851505505
 C         -2.2234694212       -0.3990339013       -0.9232007887
 C         -3.5939859780        0.1302060485       -0.9448035589
 C         -4.4998113699       -0.2979227805       -0.0480979105
 C         -5.9370566613        0.1371285979        0.0422198982
 C         -6.1463709654        1.4419904389        0.8227297821
 C         -5.6910870328        2.7114862748        0.1018927337
 H         -6.1333549696        2.7410668346       -0.8944625859
 H         -6.0923385999        3.5588448682        0.6614100294
 C         -4.1676425937        2.8682648408       -0.0039513257
 H         -3.6812312259        2.2036897956        0.7142154524
 H         -3.8867868301        3.8888249868        0.2663471709
 C         -3.5976021321        2.5959661823       -1.3960255172
 H         -2.5109086450        2.7031374633       -1.3467298097
 H         -3.9766400980        3.3411327724       -2.0991419272
 C         -3.9142400234        1.1991814269       -1.9462721077
 H         -4.9612218465        1.1412269485       -2.2426147134
 H         -3.2908911349        1.0287995033       -2.8274343812
 H         -7.2155810461        1.5308560430        1.0283847617
 H         -5.6291467882        1.3626080643        1.7817705982
 H         -6.3533247147        0.2407161507       -0.9602065225
 H         -6.4712986936       -0.6625826954        0.5597242669
 O         -4.2002454950       -1.2236027311        0.9000949259
 C         -2.9275719481       -1.7567799808        0.9982328662
 O         -2.7935800282       -2.5821310825        1.9236007280
 O         -1.3913168197        0.0095123291       -1.7780444721
 C         -0.5878049647       -2.0149730393        0.2672306040
 C          0.3849900614       -1.1023870367        0.9747925652
 C          0.9275113120       -1.4512829526        2.2056478146
 C          1.8441077704       -0.6250334802        2.8333035343
 C          2.2385578307        0.5636327401        2.2460529589
 C          1.6960748498        0.9227723698        1.0191796741
 C          0.7830363984        0.0910954916        0.3891746819
 H          0.3634660361        0.3774476757       -0.5638320413
 N          2.1085768830        2.1234161407        0.4019293418
 S          3.7518779063        2.2126851114        0.0759438226
 O          4.4578118215        2.5486197099        1.2869737998
 O          3.8863061049        3.1496086363       -1.0167630022
 C          4.1824718625        0.5616176603       -0.4433676398
 C          4.8777740078       -0.2685129914        0.4117089672
 C          5.1268887608       -1.5742028433        0.0205932489
 C          4.6737723276       -2.0254942434       -1.2089699647
 C          3.9776614712       -1.1782193560       -2.0573704391
 C          3.7242749269        0.1274516575       -1.6713010007
 H          3.1874294084        0.8139844676       -2.3067182329
 H          3.6260540211       -1.5296854657       -3.0143110408
 H          4.8647738100       -3.0438909377       -1.5088858682
 H          5.6679627081       -2.2360015263        0.6773149042
 H          5.2108883063        0.1229569823        1.3587181896
 H          1.5826887678        2.3272409479       -0.4366592031
 H          2.9571526319        1.2172759075        2.7137836359
 H          2.2561311952       -0.9097383803        3.7893337043
 H          0.6177850240       -2.3736054659        2.6751040588
 H         -0.7683538620       -2.8802104387        0.9184625538
 C          0.0104325987       -2.5122269754       -1.0359006326
 C          1.0703697469       -3.5692320959       -0.9889788825
 C         -0.2980742513       -3.9014532839       -1.5023436040
 H         -0.4284923843       -4.0720653818       -2.5604534869
 H         -0.9449879994       -4.5048142539       -0.8818453694
 H          1.8845669076       -3.5108842544       -1.6939660729
 H          1.3539956361       -3.9495544013       -0.0195941208
 H          0.0976830515       -1.7423822219       -1.7905946940
