  62
        -98.94486406
 C         -1.9282270913       -0.2064873314        0.0546960330
 C         -2.9628036274       -1.0604969954        0.5071350638
 C         -4.2646135370       -0.4238271754        0.7447965852
 C         -4.3917207242        0.9021601105        0.5542684712
 C         -5.6715001732        1.6707026119        0.7087270111
 C         -6.4362896416        1.7463850488       -0.6201446304
 C         -6.5943933049        0.3959697195       -1.3190476800
 H         -7.1751849095        0.5665123316       -2.2281625815
 H         -5.6100001983        0.0382931911       -1.6297246198
 C         -7.2803190842       -0.6822973113       -0.4684985753
 H         -8.0210347408       -1.1955684064       -1.0852997552
 H         -7.8157460903       -0.2157583916        0.3591508483
 C         -6.3364303862       -1.7547105608        0.0786729209
 H         -6.9445580777       -2.5734583585        0.4723603163
 H         -5.7309223972       -2.1593453075       -0.7362522549
 C         -5.3937475142       -1.3042146226        1.2017926040
 H         -5.9686411655       -0.8160631596        1.9912727155
 H         -4.9247995734       -2.1993146728        1.6207305155
 H         -5.8969779858        2.4184561203       -1.2917877546
 H         -7.4209298508        2.1765036193       -0.4279749408
 H         -6.2875674983        1.1928638960        1.4679273656
 H         -5.4272501182        2.6829236114        1.0353408761
 O         -3.3675233738        1.6950424152        0.1479617184
 C         -2.1142722397        1.1642022723       -0.1244354639
 O         -1.2762398001        2.0023178138       -0.5067229585
 H          1.6788554274        0.6940613738       -0.9080206550
 C          1.5408917373        0.5693955066        0.1521855261
 C          0.4697454184       -0.1542709704        0.6495653098
 C          0.3226611454       -0.2659445658        2.0309623497
 C          1.2159911767        0.3439451845        2.8885518580
 C          2.2826747229        1.0706980152        2.3874643843
 C          2.4409534271        1.1865698033        1.0124327208
 N          3.5027498004        1.9361473242        0.4805482202
 S          4.4234389815        1.3421909304       -0.7805188469
 O          5.5883284162        2.1986918013       -0.8120327163
 O          3.6459587217        1.2771202807       -1.9906968710
 C          4.8897529512       -0.2944702098       -0.2476106638
 C          5.9849544883       -0.4251216454        0.5843809776
 C          6.3171529785       -1.6813112523        1.0642573442
 C          5.5455968051       -2.7791715402        0.7140578147
 C          4.4493626563       -2.6310198463       -0.1213222300
 C          4.1144755286       -1.3774659435       -0.6091335326
 H          3.2723949010       -1.2251826924       -1.2635619706
 H          3.8514393745       -3.4858260787       -0.3945479574
 H          5.8009509574       -3.7567255767        1.0915791235
 H          7.1722179070       -1.8004579155        1.7099716897
 H          6.5622590260        0.4531040865        0.8242305866
 H          4.0921239273        2.3718779411        1.1747810655
 H          2.9779459064        1.5562341382        3.0553507446
 H          1.0847609274        0.2532262906        3.9562430957
 H         -0.5140064866       -0.8298779339        2.4203445327
 C         -0.5628255322       -0.8065058859       -0.2347319317
 H         -0.6459313144       -1.8644283388        0.0543603250
 C         -0.2495469455       -0.7308304890       -1.7133159910
 C          0.6752696111       -1.7321902264       -2.3357262802
 C         -0.7939691656       -1.7862182715       -2.6268635849
 H         -1.1398101026       -1.4914035199       -3.6063248778
 H         -1.3748825674       -2.5790714061       -2.1785159872
 H          1.0847825821       -2.4971423915       -1.6930781532
 H          1.3440117152       -1.3997691298       -3.1161812047
 H         -0.2288268073        0.2859016924       -2.0902048832
 O         -2.8031138908       -2.2947865459        0.7056661350
