  62
        -98.94390117
 C         -1.7781256903       -0.4931642910       -0.3950337901
 C         -3.0203382537       -1.0744380272       -0.7438314963
 C         -4.1416812978       -0.7884701807        0.1607522150
 C         -3.9286719306       -0.0306372241        1.2522942029
 C         -4.9903015855        0.3801281270        2.2302254837
 C         -5.6205260470        1.7225617147        1.8337018471
 C         -6.0534175076        1.7926216455        0.3692386973
 H         -5.1670449519        1.7457645594       -0.2674840764
 H         -6.5108407888        2.7717783852        0.2118042547
 C         -7.0387357343        0.6944289875       -0.0544802200
 H         -7.8374913804        1.1489479140       -0.6444583711
 H         -7.5012197428        0.2505133534        0.8278878121
 C         -6.4244233014       -0.4115645307       -0.9146737385
 H         -5.8812183665        0.0346046853       -1.7516075522
 H         -7.2391056372       -1.0076290384       -1.3345801517
 C         -5.4801413137       -1.3767602463       -0.1867721863
 H         -5.2740890934       -2.2123879534       -0.8623415088
 H         -5.9725794834       -1.7707632841        0.7047564804
 H         -4.8897256616        2.5144394566        2.0131700086
 H         -6.4822015250        1.9032440158        2.4789336427
 H         -5.7549625449       -0.3929779438        2.2754754621
 H         -4.5306878700        0.4811232721        3.2149395810
 O         -2.7169013435        0.4929419304        1.5663273202
 C         -1.6136658140        0.2884754111        0.7490059328
 O         -0.5721856696        0.8399962920        1.1467169754
 H          2.1043415149       -0.4241863470       -1.7052142727
 C          1.8808342044       -1.1122214736       -0.9041168252
 C          0.5605505718       -1.3782612153       -0.5683889542
 C          0.3129898233       -2.2862691334        0.4566555105
 C          1.3522156369       -2.8789226304        1.1492709801
 C          2.6670595064       -2.5940916109        0.8247008408
 C          2.9265529766       -1.7135019368       -0.2146710446
 N          4.2719961698       -1.4255425431       -0.5435049684
 S          5.0723543941       -0.4089743995        0.5240166530
 O          6.4167682907       -0.2741402714        0.0112070211
 O          4.9408559079       -0.9412800704        1.8548605760
 C          4.2073697937        1.1424430757        0.3671964842
 C          4.7425919987        2.1332860962       -0.4332394101
 C          4.0160714359        3.2950600217       -0.6361840369
 C          2.7634698679        3.4362789341       -0.0564831316
 C          2.2378209946        2.4310108783        0.7405425918
 C          2.9670190724        1.2725798853        0.9588710334
 H          2.5749860852        0.4788606163        1.5739755392
 H          1.2540358672        2.5132632963        1.1750434201
 H          2.1903787682        4.3343198311       -0.2276581402
 H          4.4215150466        4.0817756871       -1.2521949513
 H          5.7148175475        1.9758990432       -0.8720357188
 H          4.3818439706       -1.0597915753       -1.4800235059
 H          3.4903431070       -3.0278058362        1.3680233019
 H          1.1365633920       -3.5694004926        1.9508693791
 H         -0.7112925178       -2.5159125471        0.7168761627
 C         -0.5852524771       -0.7243693171       -1.3015783455
 H         -0.9395965662       -1.4244165901       -2.0739602959
 C         -0.1837648201        0.5769335557       -1.9700059570
 C          0.3288852599        0.5901523636       -3.3786647014
 C         -1.0409282226        1.1156438943       -3.0744986929
 H         -1.2114720712        2.1804151943       -3.1248188984
 H         -1.8935966798        0.5224621935       -3.3719179345
 H          0.4011985736       -0.3545818045       -3.8966249512
 H          1.1003804550        1.2992642815       -3.6396035081
 H          0.2343586382        1.2894174284       -1.2673246251
 O         -3.1814547227       -1.8008071695       -1.7621857788
