  62
        -98.94075076
 C          2.0159440205        1.3406498690        0.3679336442
 C          2.4958993209        0.6338583352       -0.7627164195
 C          3.6956248085       -0.1901962253       -0.5404920683
 C          4.2507779001       -0.2410249549        0.6831124425
 C          5.4373686923       -1.0807961729        1.0556874121
 C          5.0010384348       -2.4607379885        1.5676865854
 C          3.9870871182       -3.1630803622        0.6642184363
 H          3.7752214940       -4.1380056191        1.1089391812
 H          3.0512454854       -2.5989387599        0.6693725122
 C          4.4532688365       -3.3532344525       -0.7860136903
 H          5.5370498683       -3.2454672840       -0.8435665429
 H          4.2115363625       -4.3707966434       -1.1001951419
 C          3.7959160952       -2.4084310609       -1.7940662779
 H          4.0274002302       -2.7705346255       -2.7993426737
 H          2.7093042089       -2.4443619102       -1.6776219726
 C          4.2402320228       -0.9419866193       -1.7221551633
 H          5.3304072714       -0.8858038460       -1.7475075455
 H          3.8478250702       -0.4344837138       -2.6082800301
 H          4.5511967886       -2.3375695415        2.5557056261
 H          5.8889925329       -3.0862669778        1.6748240579
 H          6.0848259631       -1.1913992671        0.1881249445
 H          5.9879439937       -0.5677156792        1.8460760585
 O          3.7501749554        0.4346412385        1.7490430428
 C          2.6136579598        1.2176256080        1.6245235149
 O          2.2331586598        1.7388665205        2.6922052270
 H         -0.2161242561       -0.1608461883        0.9286220243
 C         -0.7099426950        0.2321319275        0.0474427464
 C         -0.3199734839        1.4719345729       -0.4466234138
 C         -0.9633629249        1.9668769320       -1.5722795488
 C         -1.9504922911        1.2245382472       -2.1981020819
 C         -2.3205425444       -0.0168638151       -1.7164710861
 C         -1.6904400707       -0.5168331823       -0.5832624313
 N         -2.0642754917       -1.7742927128       -0.0793695458
 S         -3.6961516251       -2.1283231102        0.0213139448
 O         -3.8079459659       -3.0877318147        1.0979363154
 O         -4.1802683271       -2.5671149342       -1.2637311579
 C         -4.4825737938       -0.5905389921        0.4690316941
 C         -5.4092674208       -0.0165565554       -0.3769358811
 C         -5.9830087294        1.1935277824       -0.0205403029
 C         -5.6184210529        1.8072375034        1.1675035241
 C         -4.6880144657        1.2161654692        2.0088733695
 C         -4.1130876155        0.0056085803        1.6585943986
 H         -3.3909639154       -0.4821648873        2.2939926835
 H         -4.4052619961        1.6944719038        2.9330029998
 H         -6.0614311747        2.7514862596        1.4420080421
 H         -6.7083396164        1.6543718900       -0.6714075330
 H         -5.6617171590       -0.5267565612       -1.2921473434
 H         -1.5763584527       -2.0447749505        0.7612143571
 H         -3.0713301640       -0.6150836842       -2.2067538092
 H         -2.4330547026        1.6156498370       -3.0806673507
 H         -0.6730919263        2.9211494235       -1.9790759248
 C          0.7701048430        2.2076114120        0.2944552374
 H          0.4433793105        2.3191957506        1.3418649876
 C          1.0166379475        3.6146342383       -0.2292033982
 C          2.3530088897        4.2744344767       -0.0689106600
 C          1.8669940555        3.8877178428       -1.4318221461
 H          1.5617020503        4.6740496031       -2.1067607208
 H          2.3230802004        3.0434876545       -1.9234213451
 H          2.3792315859        5.3216140186        0.1929046859
 H          3.1487235695        3.6944443279        0.3761850773
 H          0.1502061840        4.2537509786       -0.0902455429
 O          1.9621855225        0.6769500639       -1.9001210376
