  62
        -98.94121735
 C          2.0472423504        1.2224324603        0.1259693112
 C          2.8524003702        0.6683927799        1.1537546811
 C          4.0268285605       -0.0945800197        0.7177356609
 C          4.2678101707       -0.2524051690       -0.5962511591
 C          5.4393950010       -0.9766261585       -1.2019901192
 C          5.2480174712       -2.4955760385       -1.3098561800
 C          5.3181622111       -3.2552109891        0.0155169197
 H          6.2329520310       -2.9812636292        0.5420445800
 H          5.3875878913       -4.3175206590       -0.2269434808
 C          4.1078116309       -3.0371567498        0.9343078995
 H          3.7685877810       -3.9996542100        1.3243054790
 H          3.2815490709       -2.6194370896        0.3537314396
 C          4.3789284705       -2.1309658003        2.1354966000
 H          5.1109397205       -2.6047001305        2.7932574199
 H          3.4476015404       -2.0167900207        2.6962078499
 C          4.8859643604       -0.7299113900        1.7691081208
 H          5.9216693704       -0.7809373297        1.4338359509
 H          4.8369754401       -0.1036095205        2.6632886911
 H          6.0346702514       -2.8772570281       -1.9647568500
 H          4.2886079214       -2.6936688184       -1.7938286603
 H          6.3402119908       -0.7623191386       -0.6260768690
 H          5.5659836311       -0.5738928680       -2.2092810890
 O          3.4516623908        0.2606130013       -1.5528740290
 C          2.3114114406        0.9871629910       -1.2247090189
 O          1.6489511308        1.3499035313       -2.2131376188
 O          2.5986709500        0.8039986793        2.3806573911
 C          0.8229908501        2.0172782199        0.5453251413
 C         -0.3900763096        1.5292790901       -0.2056622391
 C         -1.1473205396        2.3260840703       -1.0529921789
 C         -2.2303903394        1.7939488205       -1.7314511194
 C         -2.5866104892        0.4676920303       -1.5749904401
 C         -1.8462084292       -0.3343529899       -0.7148268503
 C         -0.7654949094        0.2020022299       -0.0322546499
 H         -0.1825360795       -0.4267066303        0.6300840500
 N         -2.2024619790       -1.6800427401       -0.5385755010
 S         -3.8193046790       -2.0929775004       -0.4618177915
 O         -3.8568044489       -3.3108590108        0.3176985579
 O         -4.3657017687       -2.1836855098       -1.7930601317
 C         -4.6126916294       -0.7624348609        0.4241110790
 C         -4.1561077997       -0.4566119915        1.6909031292
 C         -4.7485030300        0.5871016981        2.3827684696
 C         -5.7834021000        1.3027709182        1.7999966597
 C         -6.2348500197        0.9792875187        0.5301413495
 C         -5.6440850694       -0.0621342108       -0.1675381409
 H         -5.9609239291       -0.3450626804       -1.1582371111
 H         -7.0412335297        1.5354109888        0.0800200596
 H         -6.2401755102        2.1165041079        2.3407181700
 H         -4.3988055602        0.8394904577        3.3709691698
 H         -3.3530784397       -1.0346151615        2.1195764391
 H         -1.6532916091       -2.1739513803        0.1481054388
 H         -3.4094646190        0.0350374305       -2.1204274004
 H         -2.8003406394        2.4198446207       -2.4009128092
 H         -0.8711048197        3.3556672404       -1.2080202084
 H          0.6877395400        1.7596923194        1.6093919212
 C          1.0048206299        3.5264415199        0.4911251021
 C          2.3576188698        4.1454847301        0.6730890026
 C          1.6723369700        4.2203308506       -0.6567169175
 H          1.2793289899        5.1748969007       -0.9752729171
 H          2.0427151203        3.6103250610       -1.4652205877
 H          2.4361861195        5.0448309998        1.2652810231
 H          3.2029619599        3.4803014802        0.7754068625
 H          0.1738915597        4.0482115096        0.9558620422
