  62
        -98.93389335
 C         -2.6990908453       -0.9560683429       -0.1655754455
 C         -2.3105680077        0.0774880303       -1.0513503708
 C         -2.7969248588        1.4286969457       -0.7264519037
 C         -3.5396414552        1.6188645182        0.3780120310
 C         -3.9997539363        2.9486735087        0.9028263963
 C         -2.8265150565        3.6626540546        1.6051817835
 C         -2.3686973730        4.9502104864        0.9197995559
 H         -3.0896057106        5.7421332906        1.1338661393
 H         -1.4170601408        5.2375479863        1.3721697136
 C         -2.1947056816        4.8729075646       -0.5998631554
 H         -3.1685722277        4.9542213483       -1.0851774358
 H         -1.6227631232        5.7540599575       -0.8981871964
 C         -1.4843268537        3.6227477293       -1.1350776671
 H         -0.8312108297        3.1904023011       -0.3751508992
 H         -0.8430929521        3.9281653101       -1.9647616196
 C         -2.4296516041        2.5339548573       -1.6778065268
 H         -3.3403365783        3.0002853854       -2.0635324396
 H         -1.9355882622        2.0315380209       -2.5144295727
 H         -3.1083429456        3.9029738667        2.6315743875
 H         -1.9867144803        2.9658611044        1.6670351514
 H         -4.3848230944        3.5557416790        0.0866258829
 H         -4.8071070330        2.7584705094        1.6101389098
 O         -3.8898134980        0.6045879841        1.2100701173
 C         -3.4815933895       -0.6932954687        0.9636860608
 O         -3.8786724782       -1.5209001697        1.8082547930
 H          0.0271650908       -1.2196079972       -1.1121431833
 C          0.1897361828       -1.8784357568       -0.2715641275
 C         -0.8814630096       -2.5874179984        0.2532934858
 C         -0.6554599703       -3.4173861528        1.3445433500
 C          0.6093371087       -3.5278906721        1.8966446859
 C          1.6712661724       -2.8074472240        1.3792777006
 C          1.4521172025       -1.9719236135        0.2926867114
 N          2.5250062069       -1.2023815360       -0.2258202498
 S          2.9859804272        0.0871728017        0.7697178486
 O          3.2538889011       -0.4256718564        2.0889055276
 O          2.0138906792        1.1583245928        0.6864385310
 C          4.5105087997        0.5754153110       -0.0126766241
 C          4.5258960261        1.6567996337       -0.8715229311
 C          5.7142431404        1.9962481041       -1.4997140815
 C          6.8582574333        1.2497235897       -1.2623299151
 C          6.8261419412        0.1653932796       -0.3978103869
 C          5.6419258344       -0.1782203122        0.2338113041
 H          5.5699534047       -1.0072318664        0.9179473828
 H          7.7181173442       -0.4118860830       -0.2151558961
 H          7.7809645491        1.5157680733       -1.7534114347
 H          5.7421328344        2.8396853025       -2.1708105726
 H          3.6138659080        2.2124405328       -1.0218486191
 H          2.2686575958       -0.8029817860       -1.1213936532
 H          2.6531226579       -2.8620034244        1.8191403257
 H          0.7679508710       -4.1756221544        2.7455964420
 H         -1.4849641025       -3.9598872042        1.7747097717
 C         -2.2668571140       -2.4080547361       -0.3211071912
 H         -2.9626904732       -2.9922971070        0.2957983419
 C         -2.3454345358       -2.9190884966       -1.7459259566
 C         -2.4389380395       -4.3955229370       -1.9808608863
 C         -3.6263726393       -3.5183663978       -2.2389934047
 H         -3.9211020668       -3.3317104916       -3.2606298140
 H         -4.4552153591       -3.5640546945       -1.5473650698
 H         -2.4638726589       -5.0390831493       -1.1145228303
 H         -1.9163515159       -4.8155558957       -2.8263473121
 H         -1.7704503862       -2.3309655869       -2.4482145418
 O         -1.5880350580       -0.0897067214       -2.0719810590
