  62
        -98.94255151
 C         -0.7111891287       -1.8749933723        0.2620511725
 C          0.2399216427       -2.6985098088       -0.3774620178
 C          1.6462012788       -2.5139725238        0.0227966275
 C          1.9449370297       -1.5691667284        0.9316434015
 C          3.3084412868       -1.1414096050        1.4001813576
 C          3.8345602503        0.0104003723        0.5256100609
 C          4.6471942730       -0.4265624634       -0.6909124430
 H          4.8870705810        0.4744127524       -1.2606401051
 H          5.5886536028       -0.8720839296       -0.3613341793
 C          3.9274625652       -1.4088260888       -1.6175047728
 H          2.8921633304       -1.0848842287       -1.7480916415
 H          4.4041124419       -1.3574114316       -2.5988052700
 C          3.9754899871       -2.8592152009       -1.1149882291
 H          4.3275181702       -3.5082319875       -1.9199319938
 H          4.7097408200       -2.9352794174       -0.3131059646
 C          2.6330976191       -3.4334323501       -0.6446182868
 H          2.0924497994       -3.8373173334       -1.5068474944
 H          2.8246339576       -4.2785521458        0.0261290023
 H          2.9753521142        0.5946589191        0.1849382510
 H          4.4602541446        0.6627505340        1.1382852300
 H          3.1855573215       -0.7779077121        2.4222388974
 H          3.9991397304       -1.9795185933        1.4060795810
 O          0.9948761050       -0.7996216812        1.5314495420
 C         -0.3462934298       -0.9285683971        1.2199299890
 O         -1.0987971706       -0.1621159945        1.8493534375
 O         -0.0713314629       -3.5483008400       -1.2585717720
 C         -2.1670061896       -1.9599942932       -0.1531325077
 C         -2.6777549499       -0.6044775118       -0.5804309528
 C         -4.0076976527       -0.2241433989       -0.4400886624
 C         -4.4187632661        1.0415912809       -0.8214146370
 C         -3.5139103617        1.9654367787       -1.3128818679
 C         -2.1809918064        1.5933383572       -1.4566920546
 C         -1.7877671173        0.3055937092       -1.1329560369
 H         -0.7551379284        0.0281733722       -1.2754997537
 N         -1.2194875836        2.5075008751       -1.9189992852
 S          0.3475504328        2.5353099518       -1.3552224135
 O          0.9138542070        3.7216934299       -1.9648163380
 O          1.0257409275        1.3004609136       -1.6670921821
 C          0.3511176083        2.7793150038        0.4164223586
 C         -0.7896977826        2.7874760344        1.1897454827
 C         -0.6669571515        2.9921354690        2.5562474820
 C          0.5810570457        3.1812565562        3.1239450737
 C          1.7192436514        3.1778699828        2.3321071461
 C          1.6026860987        2.9792711990        0.9676278436
 H          2.4593249823        2.9773054291        0.3118314281
 H          2.6927995702        3.3254671966        2.7716823661
 H          0.6685523848        3.3291320695        4.1889452393
 H         -1.5528309166        2.9855481513        3.1701854860
 H         -1.7576575126        2.6144283018        0.7499355193
 H         -1.5584675851        3.4449607037       -2.0782848285
 H         -3.8283119532        2.9640226988       -1.5757400189
 H         -5.4552757248        1.3218630402       -0.7120523448
 H         -4.7209486922       -0.9178457636       -0.0256358810
 H         -2.1890430266       -2.6346538039       -1.0226658258
 C         -3.0009053909       -2.5701195164        0.9571900916
 C         -4.1617815022       -3.4638868228        0.6402683282
 C         -2.9020808881       -4.0443840598        1.2065297249
 H         -2.9051252742       -4.3972042222        2.2268474453
 H         -2.2585208497       -4.6121964050        0.5503361734
 H         -5.0337848557       -3.4211392240        1.2754877719
 H         -4.3796410561       -3.6543873801       -0.3999270327
 H         -3.0740187997       -1.9198095716        1.8217592482
