  62
        -98.93906554
 C         -1.5007911360       -0.7799502774       -0.1006415107
 C         -2.7801565066       -1.3764412050       -0.0939372029
 C         -3.9073445025       -0.5307840332        0.3465651312
 C         -3.6548719232        0.7360173721        0.7260940609
 C         -4.6388022368        1.7869628251        1.1668363135
 C         -5.4240045529        2.3930753394       -0.0080211314
 C         -5.9259179271        1.3829340126       -1.0366156528
 H         -6.3585081028        1.9437491727       -1.8694353558
 H         -5.0776165842        0.8208084334       -1.4314423069
 C         -6.9874666424        0.4099778199       -0.5292529291
 H         -7.3087483680       -0.1939079468       -1.3818760387
 H         -7.8538875600        0.9754950230       -0.1787527459
 C         -6.5452878471       -0.5400087717        0.5854319445
 H         -7.3123457933       -1.3149387523        0.6754888410
 H         -6.5098587820       -0.0292501537        1.5439434531
 C         -5.2276708324       -1.2627391532        0.3227189979
 H         -5.1267795525       -2.0769506513        1.0509465276
 H         -5.2794866755       -1.7574082673       -0.6539743104
 H         -6.2678914701        2.9559998615        0.3943373633
 H         -4.7664401320        3.0948799080       -0.5265159073
 H         -5.3124237382        1.3776033238        1.9138191197
 H         -4.0579223573        2.5803097405        1.6421052434
 O         -2.3977165507        1.2648194563        0.7163122547
 C         -1.2936929779        0.5365678601        0.3107260260
 O         -0.2155379696        1.1545820504        0.3633182922
 O         -2.9828878321       -2.5722689368       -0.4422496119
 C         -0.3041700548       -1.5893998733       -0.5629333909
 C          0.7544059623       -1.6127247063        0.5107751443
 C          0.3877180712       -1.9213650458        1.8187127506
 C          1.3254666066       -1.9288003452        2.8321353470
 C          2.6485410232       -1.6193416493        2.5674231462
 C          3.0280675854       -1.3269335816        1.2637702013
 C          2.0858813213       -1.3386165961        0.2435710006
 H          2.4132625085       -1.1327942201       -0.7606238351
 N          4.3625130836       -1.0308901306        0.9593318270
 S          4.7579291851       -0.0181361852       -0.3058882980
 O          4.6237597671       -0.7170690559       -1.5599567708
 O          6.0952647469        0.4354194257        0.0144151375
 C          3.6244100638        1.3565866066       -0.2423682688
 C          3.5121291770        2.0675500631        0.9348553922
 C          2.6480194988        3.1480986144        0.9836998718
 C          1.9171254143        3.5000371643       -0.1393052189
 C          2.0454673409        2.7799719599       -1.3151191629
 C          2.9056367982        1.6963031946       -1.3691142166
 H          3.0288694905        1.1043386665       -2.2627267083
 H          1.4697621295        3.0522367357       -2.1857437259
 H          1.2370390568        4.3359553722       -0.0965638085
 H          2.5399381057        3.7083399398        1.8986523055
 H          4.0965681528        1.7741678935        1.7920356257
 H          4.9724511564       -0.9098190882        1.7535683090
 H          3.3801767847       -1.6103356820        3.3606447804
 H          1.0241091545       -2.1675536306        3.8410528177
 H         -0.6482684217       -2.1491645637        2.0302435599
 H         -0.6763490257       -2.6143819760       -0.7095263331
 C          0.2002179392       -1.0557121717       -1.8874524679
 C          0.9123322109       -1.9587392509       -2.8482794051
 C         -0.4741087010       -1.4802408994       -3.1559865276
 H         -0.6079076823       -0.7495850388       -3.9395566095
 H         -1.2880593196       -2.1856637965       -3.0730196015
 H          1.7396729742       -1.5605944761       -3.4170717287
 H          1.0400291998       -2.9916674134       -2.5611997358
 H          0.5288675812       -0.0242788279       -1.8158635369
