  62
        -98.93636463
 C          2.6873778413        1.2339655015        0.1850007571
 C          2.7066014541        0.2152893286       -0.7961200581
 C          3.8871783638       -0.6660015106       -0.7933088563
 C          4.8673519292       -0.4564947988        0.1019403272
 C          6.1664221356       -1.2063385382        0.2591399378
 C          6.1107959247       -2.7388478176        0.1789300142
 C          4.8115398379       -3.3719674634        0.6982427906
 H          5.0621477452       -4.1631611392        1.4073897662
 H          4.2201704111       -2.6287747248        1.2358961050
 C          3.9625847820       -3.9916517936       -0.4146227066
 H          4.6219060262       -4.5343394479       -1.0956385034
 H          3.2800178806       -4.7201878036        0.0293179811
 C          3.1129339485       -3.0082341992       -1.2189455006
 H          2.2943784432       -2.6305167379       -0.5998169755
 H          2.6591626995       -3.5561110230       -2.0482589687
 C          3.8655612934       -1.7930578528       -1.7850646406
 H          4.8671515853       -2.0645385290       -2.1095281361
 H          3.3058438452       -1.4243594108       -2.6488854686
 H          6.2712273278       -3.0554416428       -0.8507564821
 H          6.9555760834       -3.1155189563        0.7580351682
 H          6.8681580227       -0.8339735631       -0.4927272249
 H          6.5516551445       -0.9043157423        1.2359165979
 O          4.8124474816        0.5497843100        1.0209289345
 C          3.7272450704        1.4047348283        1.0967356360
 O          3.8044047698        2.2584875789        2.0038165655
 H         -0.8674076208        2.1110250249       -1.1548945458
 C         -0.8725408906        1.4535971505       -0.2996426664
 C          0.2425173225        1.3721017597        0.5175361735
 C          0.1990240214        0.5175937589        1.6167189868
 C         -0.9233825285       -0.2435959037        1.8771580666
 C         -2.0288561113       -0.1730276667        1.0465895996
 C         -2.0010533680        0.6823514294       -0.0450520226
 N         -3.1121315353        0.7507920943       -0.8992833481
 S         -4.6476331766        0.8806620155       -0.2424095757
 O         -5.4522074652        1.4790150682       -1.2852240859
 O         -4.6248525625        1.5721844594        1.0257203138
 C         -5.1654574662       -0.8068913102       -0.0088993988
 C         -5.0802979484       -1.6715523236       -1.0823657514
 C         -5.4950044678       -2.9835411010       -0.9189129073
 C         -5.9888679229       -3.4055427107        0.3065306592
 C         -6.0710462642       -2.5243787377        1.3735984301
 C         -5.6564500596       -1.2108830395        1.2170626560
 H         -5.6962644793       -0.4926048469        2.0204866837
 H         -6.4552215610       -2.8543018602        2.3254596744
 H         -6.3110786060       -4.4273622973        0.4306124896
 H         -5.4310650494       -3.6721806338       -1.7459721963
 H         -4.6926952058       -1.3058647822       -2.0185321276
 H         -2.9918641429        1.3706909030       -1.6867271678
 H         -2.9057966619       -0.7685871836        1.2408165284
 H         -0.9387626807       -0.9026866052        2.7321139184
 H          1.0646328090        0.4591616563        2.2634602729
 C          1.4989306434        2.1742355445        0.2785984388
 H          1.6751736050        2.8000559851        1.1655472063
 C          1.4385853597        3.0678759611       -0.9421258464
 C          0.7553992699        4.3994953045       -0.8653004509
 C          2.2494520586        4.3271416975       -0.9582358313
 H          2.7243477046        4.6232029079       -1.8815633533
 H          2.8310028307        4.5539754897       -0.0764610469
 H          0.2060877799        4.7504897252       -1.7262297441
 H          0.3184812712        4.6833826770        0.0804195298
 H          1.3697511383        2.5077818837       -1.8676763377
 O          1.7897029622        0.0502121788       -1.6416464618
