  62
        -98.93279560
 C         -1.8251206842       -0.6441897314        0.8765887113
 C         -2.1645539198        0.7275264165        0.7659456013
 C         -3.5923687397        1.0554267960        0.6162600979
 C         -4.4889562712        0.0544042697        0.6029606858
 C         -5.9775424950        0.1562357830        0.4146075624
 C         -6.3520298869       -0.0185411377       -1.0668953935
 C         -6.3277700221        1.2664906810       -1.8936121504
 H         -6.4821819852        0.9838659047       -2.9375427445
 H         -7.1677218338        1.8987492710       -1.5980820401
 C         -5.0388428158        2.0862932490       -1.7918299407
 H         -4.9864081232        2.7371127522       -2.6668650386
 H         -4.1746743622        1.4205530940       -1.8328848460
 C         -4.9721094531        2.9513038363       -0.5243344952
 H         -4.7361587681        3.9808123520       -0.8015662286
 H         -5.9564321173        2.9754260423       -0.0571020813
 C         -3.9204997371        2.5196556019        0.5080235498
 H         -2.9644463505        2.9997845372        0.2770559383
 H         -4.2209427472        2.8834890304        1.4963870430
 H         -5.6653568664       -0.7494368279       -1.5017156352
 H         -7.3576031492       -0.4399394441       -1.1268540337
 H         -6.3529150253        1.0964660853        0.8074269728
 H         -6.4192689449       -0.6644976287        0.9836792109
 O         -4.1244657023       -1.2509002029        0.7143553199
 C         -2.7982619794       -1.6437646011        0.8402927581
 O         -2.6500766470       -2.8767020817        0.9081237326
 O         -1.3017045831        1.6467475600        0.7944976182
 C         -0.3500123463       -0.9623119202        1.0334623227
 C          0.3240759808       -1.1995638555       -0.2934554731
 C         -0.2558397821       -1.9871280387       -1.2822379657
 C          0.4043157942       -2.2056136582       -2.4779740399
 C          1.6600167157       -1.6678002965       -2.6999308447
 C          2.2489764793       -0.8807107232       -1.7177680546
 C          1.5685687700       -0.6361748847       -0.5332273318
 H          2.0193051991       -0.0025667112        0.2146578329
 N          3.5191479618       -0.3188336531       -1.9026725359
 S          4.5932761671       -0.2796346952       -0.6161972412
 O          5.8991939284       -0.2097593458       -1.2351482906
 O          4.3723209438       -1.3839556579        0.2869239754
 C          4.2533741836        1.2668150103        0.1956031132
 C          4.2763931884        2.4212189373       -0.5616400656
 C          4.0248733182        3.6335238282        0.0597578580
 C          3.7585787908        3.6711141362        1.4202550408
 C          3.7430548125        2.5036062492        2.1672921486
 C          3.9935274808        1.2875287113        1.5514030951
 H          3.9840912541        0.3554403569        2.0949692769
 H          3.5336903058        2.5340299686        3.2246465676
 H          3.5601218931        4.6154820885        1.9020552229
 H          4.0345577005        4.5444125847       -0.5168233367
 H          4.4896151387        2.3518904123       -1.6152342062
 H          3.9745465055       -0.5686425014       -2.7683547268
 H          2.1804508561       -1.8551773420       -3.6269388146
 H         -0.0570851431       -2.8162433776       -3.2396884231
 H         -1.2213575444       -2.4349287501       -1.1002308532
 H          0.0890763143       -0.0450580533        1.4582378262
 C         -0.0739365684       -2.0877804791        2.0210096510
 C          0.3286595508       -3.4688635614        1.6113456699
 C          1.3281112205       -2.5646717697        2.2648952671
 H          1.6276223703       -2.7775599406        3.2803729273
 H          2.1213733943       -2.1664767468        1.6479592007
 H         -0.0780009000       -4.2966254686        2.1718924699
 H          0.4399912793       -3.6750489087        0.5584630350
 H         -0.7182578930       -2.0199034429        2.8924259667
