  62
        -98.94067371
 C          1.4163802749        1.4409486517        0.4232974947
 C          1.8916907801        0.3346731274        1.1743550909
 C          2.9856031783       -0.4356421552        0.5731938909
 C          3.4578698335       -0.0882551597       -0.6372621487
 C          4.5933044257       -0.7499714053       -1.3701322523
 C          4.1811814720       -1.9939379415       -2.1687853726
 C          3.8525070069       -3.2266907755       -1.3261016071
 H          3.7939636972       -4.0751695024       -2.0106037536
 H          4.6736253105       -3.4220365155       -0.6356626619
 C          2.5330987219       -3.1279741224       -0.5473650940
 H          1.9703604915       -4.0552223825       -0.6697428809
 H          1.9198099723       -2.3263496825       -0.9656860100
 C          2.6971647296       -2.8920477526        0.9540177284
 H          1.7021355058       -2.7898916077        1.3926481604
 H          3.1857161531       -3.7555884614        1.4105323896
 C          3.4971643700       -1.6338456827        1.3141303777
 H          3.3734747407       -1.4427428850        2.3829441192
 H          4.5563581540       -1.7855247218        1.1065603792
 H          5.0117964805       -2.2439741572       -2.8329966173
 H          3.3217525365       -1.7384659808       -2.7929214447
 H          4.9866527485       -0.0075343338       -2.0679904359
 H          5.3809075574       -1.0135836895       -0.6635079062
 O          2.9467222751        0.9506940779       -1.3468221044
 C          1.9007436787        1.7247855368       -0.8552831801
 O          1.5220506179        2.6063344963       -1.6471517157
 H         -1.3600184403        0.3070205013        0.2959693334
 C         -1.5993555514        1.2278058449       -0.2180561243
 C         -0.8491315593        2.3683639984        0.0410532784
 C         -1.1618551095        3.5410349175       -0.6336729475
 C         -2.1964131874        3.5626614774       -1.5515559444
 C         -2.9518578301        2.4299370986       -1.7941106164
 C         -2.6514230171        1.2528283976       -1.1189356906
 N         -3.3979128634        0.0810622810       -1.3321851146
 S         -3.9181227645       -0.7828257164        0.0079240322
 O         -5.1053107141       -1.4775494927       -0.4448615827
 O         -4.0844756316        0.0772386441        1.1559861739
 C         -2.6471930336       -1.9900950561        0.3119434165
 C         -2.0903206407       -2.0936207599        1.5707341940
 C         -1.1564586035       -3.0887414486        1.8114707352
 C         -0.7988202519       -3.9589205779        0.7934182876
 C         -1.3592692748       -3.8349081938       -0.4690937650
 C         -2.2955681050       -2.8440174462       -0.7148534015
 H         -2.7627489870       -2.7234919656       -1.6781387658
 H         -1.0725926178       -4.5099835734       -1.2593530961
 H         -0.0791025032       -4.7386212004        0.9875095612
 H         -0.7123798635       -3.1764390033        2.7904140434
 H         -2.3935435116       -1.3952039588        2.3348729804
 H         -4.1413673180        0.1792872922       -2.0090672698
 H         -3.7658188318        2.4517507944       -2.5033465410
 H         -2.4224883655        4.4761233308       -2.0807092011
 H         -0.5761437964        4.4283861589       -0.4588125446
 C          0.2862469039        2.2576199122        1.0251949724
 H         -0.0663353590        1.6466617065        1.8731259647
 C          0.7073114664        3.5968303222        1.6105582901
 C          2.0430734634        3.7538051038        2.2724703766
 C          1.7517282855        4.4751291927        0.9924973213
 H          1.6032830856        5.5445731887        1.0319186106
 H          2.2270390358        4.1353189863        0.0863913772
 H          2.1023385233        4.3250334162        3.1866625360
 H          2.7155006909        2.9087371243        2.2393328181
 H         -0.1281107719        4.1018606506        2.0870010476
 O          1.4257779413        0.0088880091        2.2984714047
