  62
        -98.93415680
 C          1.7672437802        0.6676303206       -0.9876497792
 C          2.0693585898        0.2561250884        0.3310870003
 C          3.5026952597        0.1527473570        0.6843593004
 C          4.4279314300        0.4786724980       -0.2363829590
 C          5.9284324499        0.4189756870       -0.1224104588
 C          6.4747593292       -1.0142247732       -0.2118588509
 C          5.7175123185       -2.0413421841        0.6251092773
 H          4.6734711085       -2.0622960530        0.3080671771
 H          6.1424881580       -3.0246807840        0.4072127659
 C          5.7857142383       -1.8263793665        2.1352705177
 H          6.8317158683       -1.8200873076        2.4496576579
 H          5.3031979678       -2.6864996170        2.6063145362
 C          5.1096184989       -0.5582075269        2.6627160995
 H          5.7363024694        0.3164637729        2.5100129410
 H          5.0001490986       -0.6743734786        3.7449242093
 C          3.7114213891       -0.3053978453        2.1078483797
 H          3.1078615686       -1.2121570452        2.2286840081
 H          3.2186958994        0.4505750540        2.7311651408
 H          6.4240469192       -1.3312951715       -1.2564998714
 H          7.5248248791       -1.0009942342        0.0852686793
 H          6.3277922004        0.9960640180       -0.9595774778
 H          6.2543406800        0.8997387653        0.7951102620
 O          4.0869996205        0.9041336001       -1.4876778984
 C          2.7723240306        1.0202743514       -1.8904318684
 O          2.6251851310        1.4502194333       -3.0525520778
 O          1.1968666195       -0.0226530525        1.1935370697
 C          0.3357268804        0.8262010921       -1.4687070492
 C         -0.4898554694        1.5459834609       -0.4303088782
 C         -0.0398118388        2.7743915300        0.0490682038
 C         -0.7604188986        3.4703104789        0.9985805048
 C         -1.9636238289        2.9729512088        1.4696331738
 C         -2.4289157195        1.7573922398        0.9878979018
 C         -1.6889937097        1.0480685109        0.0516528108
 H         -2.0586568102        0.0947741216       -0.2849680008
 N         -3.6448950799        1.2167984198        1.4356093807
 S         -4.6978574800        0.5661149721        0.3084285395
 O         -4.5977535894        1.2444494040       -0.9633779994
 O         -5.9950777401        0.6097074518        0.9500361793
 C         -4.2041746409       -1.1353601579        0.1362027069
 C         -4.1176348810       -1.6881699060       -1.1261819539
 C         -3.7750148017       -3.0254320660       -1.2511161559
 C         -3.5273998823       -3.7827079979       -0.1162183471
 C         -3.6192117323       -3.2121259898        1.1443514638
 C         -3.9644036316       -1.8766998998        1.2759827158
 H         -4.0463805115       -1.4006769213        2.2386235865
 H         -3.4221460128       -3.8038166813        2.0237180029
 H         -3.2580131029       -4.8224807279       -0.2159323487
 H         -3.7006814618       -3.4695831545       -2.2311500866
 H         -4.3095348205       -1.0600097745       -1.9816841630
 H         -4.1335593797        1.7792912690        2.1170461915
 H         -2.5332482288        3.5198206279        2.2059340545
 H         -0.3899071481        4.4144763481        1.3693800063
 H          0.8949526115        3.1699387300       -0.3263307354
 H          0.4062798309        1.4880857135       -2.3488152481
 C         -0.3055666002       -0.4673502468       -1.9503636913
 C          0.5275287493       -1.6073324664       -2.4531781729
 C         -0.2187249410       -1.7381014981       -1.1612446833
 H         -1.0854915314       -2.3820198776       -1.1307033744
 H          0.3367721388       -1.7083474398       -0.2378234431
 H          0.1740545791       -2.1571222949       -3.3124199739
 H          1.6017293293       -1.4960425171       -2.4188496026
 H         -1.2357167800       -0.2836338254       -2.4806932612
