  62
        -98.94939133
 C         -1.3492160661       -1.6013897590        0.2709307063
 C         -1.6161237639       -0.6165726029        1.2522157135
 C         -2.8016229200        0.2181333073        1.0270562443
 C         -3.5561193724        0.0043508444       -0.0659793295
 C         -4.7746397217        0.7979845675       -0.4367509804
 C         -4.4222730023        1.9689821049       -1.3635537281
 C         -3.2593264613        2.8294042777       -0.8679979005
 H         -2.3306239695        2.2541418710       -0.9064015450
 H         -3.1431011445        3.6556615281       -1.5735344953
 C         -3.4390995013        3.3925699657        0.5485141777
 H         -3.1299032441        4.4399604889        0.5458017379
 H         -4.4925473376        3.3636556377        0.8316096495
 C         -2.6002198304        2.6863016436        1.6155210854
 H         -2.5888800799        3.3133675095        2.5115078448
 H         -1.5697534611        2.6025918111        1.2582412879
 C         -3.0921095022        1.2939984968        2.0343294956
 H         -2.5545369169        1.0091401954        2.9436218040
 H         -4.1590823179        1.3340566606        2.2644865185
 H         -5.3106980673        2.5927078774       -1.4817853520
 H         -4.1553540304        1.5676313066       -2.3440294959
 H         -5.2489579845        1.1688921276        0.4697910508
 H         -5.4698535563        0.1350438850       -0.9551736012
 O         -3.2706683132       -0.9503152791       -0.9876974863
 C         -2.1381469568       -1.7443099442       -0.8698678475
 O         -1.9597878528       -2.5248977951       -1.8243605795
 O         -0.8899450628       -0.4424469114        2.2690471237
 C         -0.0916996005       -2.4399817011        0.4066890727
 C          0.9171975988       -2.0265584121       -0.6389924583
 C          1.7499031046       -2.9161138227       -1.3060595232
 C          2.6682608839       -2.4503486414       -2.2320617063
 C          2.7963455991       -1.0981898209       -2.4950639093
 C          1.9705238695       -0.1998717419       -1.8286253747
 C          1.0412750979       -0.6728389158       -0.9178593054
 H          0.3877150971        0.0321214510       -0.4298763071
 N          2.0524069007        1.1821010205       -2.0534472818
 S          1.7998599909        2.2399034074       -0.7802199221
 O          0.4003090750        2.3041847228       -0.4458455113
 O          2.3965171483        3.4800124124       -1.2303775754
 C          2.7636210686        1.5676496326        0.5621773213
 C          4.1381229645        1.6632024037        0.4481374028
 C          4.9372994271        1.1118315860        1.4348490494
 C          4.3510317470        0.4702921759        2.5159438757
 C          2.9719283238        0.3886379574        2.6191948988
 C          2.1650603052        0.9412575085        1.6355577481
 H          1.0897702731        0.8793677399        1.7026367130
 H          2.5067515600       -0.1065446245        3.4567557585
 H          4.9709704292        0.0345106777        3.2834986966
 H          6.0104291644        1.1806227059        1.3583797696
 H          4.5534843796        2.1818681894       -0.4006773041
 H          2.8133127949        1.4772915022       -2.6467657709
 H          3.5174615051       -0.7403487799       -3.2136618145
 H          3.3018916130       -3.1524641660       -2.7522574463
 H          1.6742859549       -3.9727238907       -1.1081976986
 H          0.3279771165       -2.1724526856        1.3891871932
 C         -0.4033834335       -3.9208061812        0.4000944042
 C          0.4560688458       -4.8755309861        1.1725626586
 C         -0.9259706161       -4.5546297630        1.6536188312
 H         -1.6939690782       -5.3085093522        1.5680933309
 H         -1.0324351034       -3.9214561263        2.5224913750
 H          0.6371817063       -5.8560090634        0.7586529367
 H          1.2897517770       -4.4662229325        1.7228011710
 H         -0.8247950817       -4.2541029812       -0.5410499525
