  62
        -98.94385473
 C         -1.7313695003       -1.3008419485       -0.0169671222
 C         -0.9755113907       -1.8900112853       -1.0579553144
 C          0.2565811701       -2.6007231814       -0.6666482920
 C          0.5650438668       -2.7132669113        0.6388452970
 C          1.7040522696       -3.4183104957        1.3465271140
 C          2.8609846510       -4.0130374014        0.5503045245
 C          3.8055459898       -2.9757893430       -0.0618211766
 H          4.4173188204       -2.5540181306        0.7392933499
 H          4.4743879981       -3.4824930725       -0.7601818837
 C          3.1309364444       -1.8064015295       -0.7753681763
 H          3.9059847370       -1.0947673459       -1.0747391001
 H          2.4751878718       -1.2787443159       -0.0803797677
 C          2.3340756972       -2.1628655756       -2.0280562607
 H          1.9717465170       -1.2239117265       -2.4589415797
 H          2.9899976992       -2.6378771770       -2.7612561602
 C          1.1193192044       -3.0752486681       -1.7997341008
 H          0.4952622997       -3.0345746957       -2.6978181910
 H          1.4256628003       -4.1092790504       -1.6618508096
 H          2.4809663983       -4.6907205605       -0.2086477417
 H          3.4455441806       -4.6182507795        1.2481626485
 H          2.1022754876       -2.7036867255        2.0736777215
 H          1.2331392559       -4.2194019972        1.9265870847
 O         -0.2305311270       -2.1778796465        1.6116505175
 C         -1.3492390948       -1.4126501295        1.3178888892
 O         -1.8977526967       -0.9121925764        2.3168098262
 H         -0.9623592443        0.9389589718       -1.4767826202
 C         -1.4792674380        1.5325404918       -0.7362087609
 C         -2.5758920329        0.9940102912       -0.0716005925
 C         -3.2442004182        1.7806869917        0.8564437692
 C         -2.8044913305        3.0660351220        1.1244936882
 C         -1.6895291159        3.5830439420        0.4909660459
 C         -1.0183175847        2.8072220408       -0.4490747737
 N          0.1105718196        3.3098053905       -1.1197072169
 S          1.4928267222        2.3908368908       -1.3165772506
 O          2.4654632399        3.3226446491       -1.8443503523
 O          1.2141534865        1.2345492330       -2.1260791216
 C          1.9789093013        1.9074121041        0.3295652953
 C          2.9957757961        2.6018347006        0.9556147112
 C          3.3488292983        2.2554712401        2.2497135106
 C          2.6711237020        1.2355985031        2.9009057522
 C          1.6474470269        0.5527160387        2.2625939691
 C          1.3007607298        0.8850437739        0.9623270890
 H          0.5125535510        0.3628095069        0.4418557243
 H          1.1047100210       -0.2343014169        2.7640366183
 H          2.9389192596        0.9690429825        3.9111533626
 H          4.1462895159        2.7827250999        2.7480209803
 H          3.4929361550        3.3882322033        0.4111232226
 H          0.3583541845        4.2541359296       -0.8610256174
 H         -1.3398611290        4.5790890505        0.7161740542
 H         -3.3300127218        3.6684618500        1.8496911270
 H         -4.1004094569        1.3852598288        1.3769310787
 C         -2.9320364280       -0.4412872425       -0.3778269688
 H         -3.0434457974       -0.5395078006       -1.4674975030
 C         -4.1986828554       -0.9258424437        0.2909515918
 C         -5.5312388701       -0.5520133971       -0.2840326966
 C         -5.0343379126       -1.9609495626       -0.3981729283
 H         -5.5046438818       -2.7257152332        0.2014931999
 H         -4.6987995864       -2.3098573019       -1.3641102804
 H         -5.5363746043        0.0569600756       -1.1755001452
 H         -6.3474392997       -0.3501514527        0.3927254380
 H         -4.1069495707       -0.9976900391        1.3681384945
 O         -1.3175230104       -1.8277030520       -2.2698171255
