  62
        -98.93381758
 C         -2.4801823020       -1.2240536014        0.0771230477
 C         -2.5133148310       -0.0011446876       -0.6326541322
 C         -3.8490351477        0.5722471246       -0.8758133648
 C         -4.9393642767       -0.0831883307       -0.4417667160
 C         -6.3897554768        0.2924468959       -0.6161346657
 C         -6.7723831023        1.7613853161       -0.3857726180
 C         -5.9323250661        2.4944633653        0.6701781270
 H         -6.6025792906        2.9851477178        1.3783313684
 H         -5.3303422739        1.7792150893        1.2332348750
 C         -5.0199849633        3.5661559685        0.0684438176
 H         -5.5806948404        4.1175631285       -0.6894594490
 H         -4.7460507595        4.2755329074        0.8529927756
 C         -3.7196912122        3.0518290896       -0.5487731838
 H         -3.2259208247        3.8918365926       -1.0434647711
 H         -3.0443908977        2.7046597772        0.2383818833
 C         -3.8753368177        1.9069685872       -1.5631599386
 H         -4.7710509153        2.0328322084       -2.1667193723
 H         -3.0035717042        1.9230144101       -2.2232507103
 H         -6.7102127359        2.3056198270       -1.3270751024
 H         -7.8216971343        1.7704256378       -0.0863538907
 H         -6.6988159574       -0.0043451418       -1.6224665706
 H         -6.9330265729       -0.3424681027        0.0876638798
 O         -4.8587880319       -1.2677731740        0.2287687404
 C         -3.6410628148       -1.8607565948        0.5113665682
 O         -3.7233092803       -2.9308879168        1.1479068809
 O         -1.4802701290        0.5853026062       -1.0504676814
 C         -1.1507853379       -1.8910265552        0.3753453781
 C         -0.2280001314       -0.9388400511        1.0968793994
 C         -0.7230616897       -0.1886567467        2.1606277925
 C          0.0913171228        0.6959413196        2.8399125070
 C          1.4179414653        0.8486386489        2.4772913768
 C          1.9294545464        0.0874186897        1.4333390083
 C          1.1083967964       -0.8032507802        0.7549697854
 H          1.5283349592       -1.3747754429       -0.0550191155
 N          3.2894639453        0.1822085325        1.0893469947
 S          3.7725559640        0.0207015973       -0.5198040987
 O          3.0500204534        0.9451670762       -1.3642268136
 O          3.7124663847       -1.3704440254       -0.8903141553
 C          5.4773536006        0.5257759559       -0.3735047981
 C          5.8297625210        1.8260752066       -0.6819773259
 C          7.1528365409        2.2143012193       -0.5402947002
 C          8.0956290338        1.3013932101       -0.0920127371
 C          7.7272733150       -0.0007322935        0.2125418079
 C          6.4064581389       -0.3955826818        0.0715575606
 H          6.0756723424       -1.3981892375        0.2865572973
 H          8.4636436595       -0.7083166457        0.5579084754
 H          9.1244559736        1.6059777224        0.0175773137
 H          7.4426395147        3.2247016392       -0.7802241745
 H          5.0645351730        2.4981643478       -1.0363839462
 H          3.7379920131        0.9832832015        1.5134269016
 H          2.0517535332        1.5477078566        3.0016089098
 H         -0.3112560110        1.2789570725        3.6548733904
 H         -1.7625608196       -0.3016654498        2.4394204794
 H         -1.3750403112       -2.7297226320        1.0518967215
 C         -0.5542351116       -2.4458613775       -0.9020060849
 C          0.3067856320       -3.6713341258       -0.8656824787
 C         -1.0726526934       -3.7415064642       -1.4466739031
 H         -1.1801266031       -3.8451048240       -2.5159986446
 H         -1.8431151100       -4.2422860617       -0.8782024820
 H          1.1553691004       -3.7224949670       -1.5317251533
 H          0.4746677665       -4.1338055359        0.0953809028
 H         -0.3027549406       -1.6679037783       -1.6156034096
