  62
        -98.94486572
 C          1.8659759207       -1.0618025726        0.2005835492
 C          3.0208567453       -1.1626138927       -0.6215977832
 C          4.2479136857       -0.5391425957       -0.1123202908
 C          4.2239126380        0.0683392444        1.0875447187
 C          5.3848748750        0.7852425863        1.7117974191
 C          5.3885344882        2.2731063830        1.3340612483
 C          5.2228782414        2.5312374907       -0.1636407835
 H          4.2250114657        2.2111756112       -0.4731150729
 H          5.2732800705        3.6118587380       -0.3146409837
 C          6.2725744064        1.8419267485       -1.0466084821
 H          6.6269995307        2.5575641780       -1.7913693988
 H          7.1327181435        1.5516083078       -0.4420807377
 C          5.7556639910        0.6223102227       -1.8120332298
 H          4.8385541046        0.8863388770       -2.3448983671
 H          6.5030370039        0.3506261782       -2.5622626510
 C          5.4801946179       -0.6281946378       -0.9675794385
 H          6.3559231949       -0.8605184249       -0.3580682625
 H          5.3082368416       -1.4614910995       -1.6549972233
 H          4.5667842005        2.7662354711        1.8586565566
 H          6.3250782344        2.7145101135        1.6797188558
 H          5.3025212983        0.6951228031        2.7963300952
 H          6.3113366096        0.3152896726        1.3874350478
 O          3.1084588590        0.1341916921        1.8541407625
 C          1.9038485231       -0.4119984593        1.4341774945
 O          0.9777711541       -0.2433388752        2.2543509162
 O          3.0235040271       -1.7583270441       -1.7315507786
 C          0.6002666951       -1.7121614808       -0.3328032054
 C         -0.3477631046       -0.7023190947       -0.9339417840
 C         -0.7126246206       -0.7712414549       -2.2731390841
 C         -1.6161345353        0.1320199802       -2.8068270098
 C         -2.1743690820        1.1202621762       -2.0163038308
 C         -1.8089181987        1.2010013313       -0.6788485255
 C         -0.9086265687        0.2918870025       -0.1447348542
 H         -0.6295707809        0.3616130236        0.8960929415
 N         -2.3879044381        2.1931534613        0.1414089486
 S         -4.0598699336        2.1170090939        0.2578375242
 O         -4.6431540576        2.7078959122       -0.9205465862
 O         -4.3966597090        2.7464175173        1.5149540725
 C         -4.4184154195        0.3703246695        0.3040481589
 C         -4.9532691047       -0.2518963528       -0.8053424667
 C         -5.1507676738       -1.6229572476       -0.7728969688
 C         -4.8067342216       -2.3439353445        0.3596914867
 C         -4.2711134849       -1.7035566317        1.4666622087
 C         -4.0701999681       -0.3334820690        1.4397054687
 H         -3.6574803632        0.1967323928        2.2834892846
 H         -4.0039834493       -2.2645944077        2.3480985753
 H         -4.9574449419       -3.4118520611        0.3809290700
 H         -5.5670018918       -2.1246078656       -1.6314257811
 H         -5.2060572307        0.3467147099       -1.6648747387
 H         -1.9807027978        2.2158302471        1.0660922453
 H         -2.8870700763        1.8275722747       -2.4088323100
 H         -1.8898268118        0.0649958099       -3.8485884155
 H         -0.2753767385       -1.5348393805       -2.8995678118
 H          0.9414472100       -2.3719249865       -1.1416144638
 C         -0.1276133157       -2.5537524614        0.6988411560
 C         -1.0813251468       -3.6094165893        0.2297702860
 C          0.2255654103       -4.0014237612        0.8499815850
 H          0.2223743403       -4.4304591602        1.8407481697
 H          0.9986544481       -4.3970424035        0.2073924296
 H         -1.9873615956       -3.7687000180        0.7927620913
 H         -1.1961430717       -3.7404408443       -0.8352396732
 H         -0.3814236238       -2.0073801989        1.5975865133
