  62
        -98.94788046
 C          0.9939209290        0.9771651191        0.7143118545
 C          1.6271622997        0.8723112371       -0.5472950940
 C          2.3161215951       -0.3969888629       -0.8093370011
 C          2.2566502015       -1.3904468260        0.0948579747
 C          2.8691117939       -2.7578298847       -0.0489602446
 C          4.3547603047       -2.8234265698        0.3316093649
 C          5.3128589580       -2.1688496866       -0.6641500949
 H          6.3226138340       -2.4791784680       -0.3882431582
 H          5.1150283398       -2.5557297145       -1.6643295355
 C          5.2557421762       -0.6350361439       -0.6833145470
 H          6.2710495831       -0.2324981329       -0.6741484132
 H          4.7599908879       -0.2773303266        0.2218636628
 C          4.5449800885       -0.0432929057       -1.9006089492
 H          5.1057288119       -0.2839873629       -2.8065665302
 H          4.5278657219        1.0442723906       -1.7939212207
 C          3.0986224184       -0.5230370392       -2.0807047667
 H          2.6125369449        0.1082708942       -2.8290928821
 H          3.0823670905       -1.5533264821       -2.4370978836
 H          4.4829235239       -2.3653001999        1.3148636800
 H          4.6213860103       -3.8792733111        0.4183330456
 H          2.3142759285       -3.4202409619        0.6194832788
 H          2.7350957425       -3.1102038944       -1.0726398275
 O          1.5889293415       -1.2700129739        1.2737021070
 C          0.9494510181       -0.0871480377        1.6130761856
 O          0.3796333948       -0.1119190720        2.7228741145
 H         -1.4447734371        0.3667495297        0.2625129689
 C         -1.6640947965        1.3063037946       -0.2234553217
 C         -0.8964306956        2.4221030848        0.0855712737
 C         -1.2000354640        3.6278994657       -0.5315893276
 C         -2.2257832607        3.6963004682       -1.4593905265
 C         -2.9546556078        2.5715387166       -1.7995741102
 C         -2.6673028935        1.3626600008       -1.1749756508
 N         -3.3880868705        0.1964486574       -1.4717889370
 S         -2.6165932622       -1.2878725203       -1.4320592854
 O         -1.2467065623       -1.2052562047       -1.8834372984
 O         -3.4827911633       -2.1559021002       -2.2043201117
 C         -2.6853156155       -1.7838861982        0.2753522035
 C         -3.8478401242       -1.5710859182        0.9891852731
 C         -3.9005282689       -1.9757184069        2.3131658223
 C         -2.7995598775       -2.5849969282        2.8958661336
 C         -1.6428472195       -2.7989510548        2.1631567572
 C         -1.5848031068       -2.3974830179        0.8386566516
 H         -0.6975287946       -2.5274761656        0.2376043684
 H         -0.7806227828       -3.2591731379        2.6183073468
 H         -2.8383777694       -2.8914071845        3.9292440481
 H         -4.7970630082       -1.8104734772        2.8887836540
 H         -4.6806376451       -1.0894968876        0.5045223554
 H         -4.0350889455        0.2715799876       -2.2431532729
 H         -3.7353611647        2.6231446600       -2.5430263614
 H         -2.4489126479        4.6373839996       -1.9388992337
 H         -0.6268675521        4.5100794709       -0.2980841847
 C          0.2281603666        2.2378214021        1.0764207280
 H         -0.2148319586        2.0516995590        2.0659809110
 C          1.1591178018        3.4276062773        1.1705328206
 C          0.8322308808        4.5703498495        2.0830546731
 C          1.9472970821        3.6309719578        2.4284187487
 H          2.9648436450        3.9828006859        2.3480767202
 H          1.7922875357        2.9229212140        3.2296809120
 H         -0.0789815323        4.5059340876        2.6581191489
 H          1.0869808960        5.5710665559        1.7682162389
 H          1.6523288807        3.6448358447        0.2301958368
 O          1.6223961871        1.7894606981       -1.4097268181
