  62
        -98.94188877
 C         -2.7744582067       -0.2678946821       -0.2554460140
 C         -2.0300687289        0.5540155057       -1.1364407401
 C         -2.0194817315        1.9907739395       -0.8249980303
 C         -2.7147603772        2.4497725344        0.2297545137
 C         -2.7510117099        3.8796618936        0.6831307169
 C         -1.6677977303        4.1650575338        1.7322791981
 C         -0.2713538947        3.6806411227        1.3399659937
 H          0.4127090168        3.9893492504        2.1341053553
 H         -0.2522530049        2.5876118934        1.3196724301
 C          0.2373079728        4.2146968116       -0.0060046620
 H          1.2787164614        4.5199733141        0.1152473601
 H         -0.3312040418        5.0997864095       -0.2955274841
 C          0.2021036176        3.1879949839       -1.1397734351
 H          0.6482159754        2.2540537056       -0.7860506855
 H          0.8161481394        3.5652809757       -1.9624109718
 C         -1.1887622024        2.8773184170       -1.7090635584
 H         -1.7144555348        3.8084726563       -1.9300835681
 H         -1.0539996972        2.3273810815       -2.6449549200
 H         -1.6412261259        5.2414984189        1.9131491618
 H         -1.9491855759        3.6704778713        2.6649779251
 H         -2.6171445011        4.5310166218       -0.1783300312
 H         -3.7298670936        4.0733505461        1.1255229438
 O         -3.4501718078        1.6392258581        1.0328667704
 C         -3.4700178748        0.2713057641        0.8320024630
 O         -4.1499183143       -0.3557432116        1.6697980397
 H         -0.2711136977       -1.4208687432       -1.1626549785
 C         -0.3221167237       -2.0200434040       -0.2656773007
 C         -1.5614871677       -2.3415176310        0.2689365327
 C         -1.6019484944       -3.0992767617        1.4331620765
 C         -0.4317529633       -3.5057451704        2.0523071314
 C          0.8016328028       -3.1462418384        1.5374272235
 C          0.8480771578       -2.3940422469        0.3725612270
 N          2.1035040390       -1.9415461395       -0.1213337077
 S          2.6083667922       -0.6027230728        0.7945566757
 O          2.9353884004       -1.0745030994        2.1167671666
 O          1.6227991084        0.4540084771        0.7230232763
 C          4.0955590447       -0.1264350471       -0.0646373740
 C          4.0590031344        0.9309617829       -0.9525692521
 C          5.2147220613        1.2686488923       -1.6396001971
 C          6.3780338100        0.5435156729       -1.4310962561
 C          6.3980002039       -0.5168667759       -0.5369697920
 C          5.2468755951       -0.8583633069        0.1543819644
 H          5.2150842757       -1.6679166837        0.8643122434
 H          7.3051225606       -1.0769541783       -0.3771899848
 H          7.2752458914        0.8082189040       -1.9679599309
 H          5.2013246365        2.0938034172       -2.3334050279
 H          3.1336217088        1.4705333568       -1.0800142533
 H          1.9988783294       -1.6180223652       -1.0769170897
 H          1.7195899373       -3.4112388786        2.0358689636
 H         -0.4813236708       -4.0900714188        2.9587776411
 H         -2.5597308669       -3.3431593173        1.8700883170
 C         -2.8189411103       -1.7877721962       -0.3581768310
 H         -3.6713069401       -2.1052784674        0.2570816368
 C         -3.0249479562       -2.3030092182       -1.7680177484
 C         -3.5515533443       -3.6923541061       -1.9597730478
 C         -4.4190844644       -2.5114829936       -2.2742675852
 H         -4.6297376457       -2.2834918200       -3.3082140161
 H         -5.2337290093       -2.2827832850       -1.6023713898
 H         -3.7800899526       -4.2668397776       -1.0748043631
 H         -3.1660040795       -4.2799128709       -2.7786259235
 H         -2.2910386541       -1.9387152707       -2.4739355496
 O         -1.3951919768        0.1369339459       -2.1435996865
