  62
        -98.92799761
 C         -2.4948628763       -1.2069185299        0.1179748704
 C         -3.1074284247       -0.3706017990        1.0830732552
 C         -4.0527879331        0.6436717323        0.5896240814
 C         -4.2666069082        0.7539151318       -0.7347757469
 C         -5.1920312017        1.6586737827       -1.5208519222
 C         -5.7980343598        2.9045169846       -0.8792783611
 C         -4.7901393321        3.9930015842       -0.5129433173
 H         -4.3816405010        4.4143983317       -1.4348482170
 H         -5.3247963238        4.7899324906        0.0087222382
 C         -3.6130984679        3.5400065262        0.3475900974
 H         -2.9881423849        4.4150892395        0.5458740703
 H         -3.0008706646        2.8292108248       -0.2115533621
 C         -3.9861769965        2.9217339615        1.6939554659
 H         -4.6370118215        3.6037054049        2.2445666701
 H         -3.0629976696        2.8045701225        2.2682028910
 C         -4.6646999270        1.5416811212        1.6258110793
 H         -4.5175663543        1.0456846110        2.5896200960
 H         -5.7365388902        1.6340829316        1.4671108944
 H         -6.4870859336        3.3279469818       -1.6151653212
 H         -6.3928601416        2.6318858080       -0.0124701446
 H         -4.6296892083        1.9527407305       -2.4125708618
 H         -6.0095336529        1.0179392087       -1.8696022381
 O         -3.6388879047       -0.0599140016       -1.6297598813
 C         -2.7388623872       -1.0449904625       -1.2460556195
 O         -2.2506281924       -1.6706005667       -2.2011497224
 O         -2.8778453662       -0.4695297338        2.3203093813
 C         -1.5060364627       -2.2498713565        0.6249333143
 C         -0.1365452555       -1.9249784836        0.0817932277
 C          0.4151828550       -2.4186011408       -1.0944544696
 C          1.6652878703       -1.9968201966       -1.5153828380
 C          2.3916644083       -1.0690119848       -0.7925871054
 C          1.8505011980       -0.5587451728        0.3799592000
 C          0.6050683694       -0.9952989840        0.8062896564
 H          0.1859883968       -0.5884855367        1.7184001465
 N          2.5522123799        0.4118574339        1.1115841852
 S          4.1981445558        0.2349417342        1.3663814001
 O          4.5822930673       -1.1562021902        1.4246241334
 O          4.4816583300        1.0284577109        2.5421266218
 C          4.9368880738        1.0165434032       -0.0525773881
 C          4.5329935488        2.2973861365       -0.3746367230
 C          5.1078897901        2.9252030774       -1.4679238993
 C          6.0739384564        2.2669894261       -2.2144489664
 C          6.4712774442        0.9826296399       -1.8760251034
 C          5.8991096073        0.3485059607       -0.7840739583
 H          6.1727464230       -0.6517096150       -0.4878231268
 H          7.2225119212        0.4728623494       -2.4575652974
 H          6.5191733779        2.7583079785       -3.0651830375
 H          4.8006700827        3.9237399219       -1.7344358254
 H          3.7807340220        2.7754136986        0.2306270325
 H          2.0792937168        0.7212562352        1.9478027315
 H          3.3625277010       -0.7399782649       -1.1249705099
 H          2.0752310171       -2.3936766020       -2.4318089642
 H         -0.1362090508       -3.1072566092       -1.7083746157
 H         -1.4586875021       -2.0531047109        1.7078055780
 C         -2.0536887865       -3.6662578655        0.5146212411
 C         -2.2360406349       -4.4545325988       -0.7461676153
 C         -1.2018772547       -4.8723370035        0.2551832017
 H         -1.3873863405       -5.7619300917        0.8387697388
 H         -0.1618067386       -4.7128686414        0.0179658458
 H         -3.1342821289       -5.0505903663       -0.8281874773
 H         -1.9378617441       -4.0104531609       -1.6807029853
 H         -2.8465331569       -3.7997865807        1.2474570194
