  62
        -98.94075406
 C         -1.7420455098       -0.5807643035       -0.3834251621
 C         -2.9623814961       -0.8326535065       -1.0606064205
 C         -4.1898445534       -0.6709123680       -0.2705560775
 C         -4.0928658604       -0.3552646864        1.0335308630
 C         -5.2593352577       -0.1064315054        1.9442656844
 C         -5.6498116902        1.3783066704        1.9528836067
 C         -5.7987253550        1.9867677397        0.5583554405
 H         -6.1042547708        3.0271749154        0.6884665592
 H         -4.8226021271        1.9981399508        0.0680130823
 C         -6.8101121778        1.2664884508       -0.3443418686
 H         -7.4312219570        2.0147048083       -0.8412917466
 H         -7.4723027153        0.6470284154        0.2616223683
 C         -6.1812141292        0.4088035520       -1.4440811522
 H         -6.9692607787        0.1250592546       -2.1467217086
 H         -5.4486972421        1.0017324745       -1.9978779085
 C         -5.5004457359       -0.8830374734       -0.9744636219
 H         -6.1878605395       -1.4537269456       -0.3466774546
 H         -5.2701396536       -1.4795154580       -1.8622609925
 H         -6.5881526090        1.4850345681        2.5001592026
 H         -4.8782034105        1.9358015082        2.4887478016
 H         -4.9762010511       -0.4047425670        2.9550489487
 H         -6.1027236999       -0.7130701109        1.6199563407
 O         -2.9048915623       -0.1831403041        1.6645148316
 C         -1.6991224193       -0.2845237515        0.9801278556
 O         -0.6986872047       -0.0969454811        1.6953933998
 O         -3.0208418502       -1.1823291712       -2.2700825511
 C         -0.4566084463       -0.7224264447       -1.1780800543
 C          0.5424537031       -1.5584720740       -0.4196445805
 C          0.1850772957       -2.8536527880       -0.0509840337
 C          1.0612242007       -3.6562332480        0.6514219021
 C          2.3241064512       -3.1942435099        0.9801961271
 C          2.6933848630       -1.9078005057        0.6114032284
 C          1.8021878002       -1.0960658808       -0.0772172204
 H          2.1014728778       -0.0930086840       -0.3294537929
 N          3.9606640387       -1.4017370024        0.9352652621
 S          4.7926011491       -0.4801962639       -0.1840000421
 O          4.4986219106       -0.8923720358       -1.5371386401
 O          6.1795375207       -0.5792653175        0.2200209861
 C          4.2406494211        1.1907794215        0.0826840959
 C          4.1052797797        1.6503882018        1.3774362425
 C          3.7207226101        2.9654686917        1.5832370772
 C          3.4872922626        3.7967932131        0.4983099248
 C          3.6314958404        3.3210682210       -0.7959880200
 C          4.0120982166        2.0051936477       -1.0085843942
 H          4.1254527884        1.5910510843       -1.9979776407
 H          3.4482014916        3.9684441745       -1.6390978472
 H          3.1879270186        4.8201194825        0.6616167435
 H          3.6033110183        3.3377794690        2.5881499876
 H          4.2937099530        0.9773762559        2.1970016040
 H          4.5681063825       -2.0460805456        1.4197737403
 H          3.0142915091       -3.8219893201        1.5234553855
 H          0.7651114480       -4.6541997218        0.9385353364
 H         -0.7988650610       -3.2181571584       -0.3147531405
 H         -0.7534639855       -1.2917348702       -2.0757873541
 C          0.1173515523        0.5963914316       -1.6738393261
 C         -0.7744427424        1.7672991277       -1.9563057575
 C          0.1840496601        1.8162721517       -0.8063626652
 H          1.0523344557        2.4536539105       -0.8867973438
 H         -0.2048543173        1.7358053725        0.1961552427
 H         -0.5683702765        2.3704200261       -2.8276401900
 H         -1.8273915483        1.6558173842       -1.7415237725
 H          0.9426043176        0.4429225821       -2.3636165292
