  62
        -98.94327073
 C         -1.3069737734       -1.0019350311       -0.0125481647
 C         -1.8046745655        0.0871992368        0.7427527849
 C         -2.7618522112        0.9630721373        0.0535463038
 C         -3.0863017977        0.7039369744       -1.2264265909
 C         -4.0866816233        1.4825451236       -2.0299296855
 C         -5.4929822340        0.8810066886       -1.8995772700
 C         -5.9196411648        0.6147097677       -0.4559549384
 H         -6.9379550044        0.2210786338       -0.4858258293
 H         -5.2848367695       -0.1687550007       -0.0358498765
 C         -5.8744438410        1.8476665126        0.4574902519
 H         -5.8525211916        2.7555378476       -0.1465379433
 H         -6.7902832614        1.8765496152        1.0516080669
 C         -4.7037885002        1.8646040670        1.4420365135
 H         -4.6691197258        0.9164671610        1.9842963561
 H         -4.8883006770        2.6544713884        2.1749727856
 C         -3.3207206652        2.1217055658        0.8306031023
 H         -3.3533555360        3.0216335343        0.2129585258
 H         -2.6213929260        2.2929810240        1.6541275397
 H         -6.2041436963        1.5611513222       -2.3720425843
 H         -5.5161419279       -0.0659670872       -2.4439578409
 H         -4.0908663205        2.5173732011       -1.6926032394
 H         -3.7846142271        1.4531631481       -3.0783633040
 O         -2.5652589404       -0.3350526498       -1.9289121046
 C         -1.6658453493       -1.2169002695       -1.3429645910
 O         -1.2644942127       -2.1200708033       -2.1006099712
 H          0.8007615780        0.1131473680       -0.6790096104
 C          1.4563956839       -0.7491763923       -0.6599646882
 C          1.0243998429       -1.9173390365       -0.0470287239
 C          1.8905182324       -3.0050245233       -0.0288042533
 C          3.1456940732       -2.9211057823       -0.6067551864
 C          3.5702046533       -1.7524549106       -1.2139857454
 C          2.7103607811       -0.6651945731       -1.2448605328
 N          3.1565019690        0.5526953493       -1.8221925048
 S          4.1020067538        1.4515854900       -0.7645007921
 O          4.2737135802        2.7477119317       -1.3806252064
 O          5.3030605113        0.7073270599       -0.4872672078
 C          3.0988243134        1.5842239158        0.7032160287
 C          2.1894776157        2.6190969458        0.7949038037
 C          1.3144982223        2.6497793008        1.8684352485
 C          1.3513483931        1.6409419260        2.8184047002
 C          2.2707746028        0.6092200743        2.7115257633
 C          3.1525514949        0.5747698574        1.6433831733
 H          3.8770289408       -0.2143497852        1.5220774758
 H          2.2931268059       -0.1761613310        3.4498104149
 H          0.6481574353        1.6509985140        3.6354607694
 H          0.5949811378        3.4484466654        1.9538081038
 H          2.1874811678        3.3805302143        0.0305367457
 H          2.3923524342        1.1357300514       -2.1360496915
 H          4.5513281339       -1.6595531198       -1.6497429586
 H          3.8037651269       -3.7761220220       -0.5810203089
 H          1.5810028288       -3.9223936487        0.4450514543
 C         -0.3181401040       -1.9441045675        0.6422859172
 H         -0.1725470669       -1.5458593260        1.6588845415
 C         -0.9002792389       -3.3401971044        0.7465384615
 C         -0.6116958584       -4.2017082652        1.9386802344
 C         -1.9718192052       -3.5991974604        1.7619448766
 H         -2.7950534863       -4.2433322794        1.4916610597
 H         -2.2539113717       -2.7767970452        2.4032574071
 H          0.0218423680       -3.7940828377        2.7118308919
 H         -0.5018910082       -5.2655661167        1.7907656804
 H         -1.0022095424       -3.8196920408       -0.2205309584
 O         -1.4603095422        0.3172827034        1.9314955124
