  62
        -98.94195685
 C         -1.2002422416       -1.5780355741        0.5190876480
 C         -2.1050544686       -1.1574185202       -0.4841251474
 C         -3.0912864217       -0.1380742343       -0.0865478049
 C         -3.0946861530        0.3250499209        1.1748946747
 C         -4.0266302415        1.3287153341        1.8066994572
 C         -4.3747413046        2.5845899661        0.9972022802
 C         -3.2526289203        3.1131300071        0.0913891805
 H         -3.1255595809        4.1827005261        0.2721888771
 H         -2.3001368850        2.6356243204        0.3328072226
 C         -3.5488636013        2.9245593184       -1.3982279983
 H         -4.5910436030        3.1929180266       -1.5882154700
 H         -2.9206161648        3.6155850897       -1.9657994323
 C         -3.2825384285        1.5229575847       -1.9439301781
 H         -2.2055335284        1.3296115545       -1.9345893361
 H         -3.6043467054        1.5000611459       -2.9882377153
 C         -3.9734882866        0.3758476704       -1.1868778472
 H         -4.9500823902        0.6787966941       -0.8169922426
 H         -4.1050213241       -0.4568735509       -1.8832037498
 H         -5.2581527289        2.3934264545        0.3890993970
 H         -4.6508151151        3.3558287186        1.7186061629
 H         -4.9519367524        0.8106501649        2.0766013510
 H         -3.5369198724        1.6215442018        2.7387123598
 O         -2.2155200526       -0.1233842401        2.1154077991
 C         -1.2290372363       -1.0437084007        1.8044718320
 O         -0.4505882048       -1.3019463527        2.7467390531
 O         -2.0928222265       -1.6080949005       -1.6592015847
 C         -0.0813906058       -2.5417360010        0.1744020208
 C          0.8116955956       -1.9472118616       -0.8910602518
 C          1.5047156553       -2.7170397517       -1.8178127102
 C          2.3228926057       -2.1111586202       -2.7559328980
 C          2.4799066950       -0.7367905990       -2.7871486750
 C          1.7922894342        0.0413843166       -1.8629823220
 C          0.9760324368       -0.5706033252       -0.9265595972
 H          0.4293549424        0.0471186696       -0.2326175474
 N          1.8957494616        1.4392016844       -1.8604117532
 S          1.7608470086        2.3033266655       -0.4377221240
 O          0.4027741418        2.2904853681        0.0440288776
 O          2.3011550093        3.6049912394       -0.7677921910
 C          2.8576290055        1.4755336105        0.6996389744
 C          4.2146586033        1.5859320671        0.4603641684
 C          5.1014800296        0.9208444706        1.2898412115
 C          4.6193572221        0.1516889961        2.3388261268
 C          3.2565613083        0.0547113862        2.5695491652
 C          2.3644061979        0.7230495022        1.7449594773
 H          1.3001201358        0.6570335072        1.9101888411
 H          2.8685015563       -0.5414782330        3.3803157022
 H          5.3078106806       -0.3727749784        2.9824266798
 H          6.1624331935        1.0003273744        1.1161426916
 H          4.5495887776        2.2027174348       -0.3576946521
 H          2.5861685677        1.8277831015       -2.4846281181
 H          3.1144361452       -0.2691147159       -3.5239345248
 H          2.8497567953       -2.7198836815       -3.4749420428
 H          1.3964767711       -3.7894387847       -1.8105802150
 H          0.5183570383       -2.6519965268        1.0910573422
 C         -0.6373684562       -3.8983941023       -0.2094381472
 C          0.1076013896       -5.1516114705        0.1371581634
 C         -1.1494955074       -4.7998648696        0.8724409122
 H         -2.0414233755       -5.3780460888        0.6836376460
 H         -1.0668390629       -4.4460224579        1.8901705127
 H          0.0771200887       -5.9775435049       -0.5575051658
 H          1.0440390027       -5.0498119528        0.6647171285
 H         -1.1906388154       -3.8699017404       -1.1408151816
