  62
        -98.93108925
 C         -2.3859927000       -1.2817212694        0.1472951553
 C         -2.3221990162        0.0427871416       -0.3457620122
 C         -3.6115892281        0.6837118004       -0.6757115531
 C         -4.7611615764        0.0144661037       -0.4740532673
 C         -6.1995956878        0.3912754930       -0.7619354597
 C         -6.5881045765        1.8417014504       -1.0374290369
 C         -6.4230032861        2.7868819202        0.1519738923
 H         -6.6371926018        3.8025022885       -0.1878021380
 H         -7.1659149713        2.5256244621        0.9097075199
 C         -5.0528305076        2.7674065399        0.8251981484
 H         -5.0741984479        3.4877850071        1.6474097084
 H         -4.8735596001        1.7841577567        1.2650308126
 C         -3.8739761565        3.1289102464       -0.0766440000
 H         -2.9911913954        3.2317872935        0.5604683536
 H         -4.0571371996        4.0940512240       -0.5529937512
 C         -3.5332364415        2.0997536961       -1.1688383744
 H         -4.1558247276        2.2348413752       -2.0502443744
 H         -2.4946715091        2.2625022708       -1.4725236666
 H         -7.6478200602        1.8326097790       -1.3066408924
 H         -6.0478428666        2.2192271007       -1.9005915844
 H         -6.7783350165        0.0212400111        0.0901844792
 H         -6.4983986425       -0.2156119472       -1.6239197718
 O         -4.7723562441       -1.2538351648        0.0325546066
 C         -3.6077235358       -1.9208858700        0.3652995515
 O         -3.7896555257       -3.0561010812        0.8479001871
 O         -1.2486006864        0.6776761554       -0.5150324125
 C         -1.1374615881       -2.0616679628        0.5203684903
 C         -0.1677482118       -1.1759434399        1.2642922760
 C         -0.5840616265       -0.5880996761        2.4561660589
 C          0.2608032197        0.2420093219        3.1658600384
 C          1.5409063942        0.4968529209        2.7070204130
 C          1.9727011185       -0.0975887843        1.5269906426
 C          1.1207469306       -0.9314370878        0.8164201749
 H          1.4689784522       -1.3553076608       -0.1094961800
 N          3.2906507066        0.1086536430        1.0818909073
 S          3.6959410221        0.0609417415       -0.5528947751
 O          2.9646489881        1.0585214463       -1.3008869517
 O          3.5981243713       -1.2979471707       -1.0229562793
 C          5.4146981763        0.5264452172       -0.4361912975
 C          6.3355145188       -0.4337345936       -0.0616759645
 C          7.6687055760       -0.0746751307        0.0556475587
 C          8.0577613993        1.2315464423       -0.2021111345
 C          7.1232306781        2.1838257996       -0.5797327745
 C          5.7877985373        1.8311488972       -0.6972658422
 H          5.0278111410        2.5351229277       -0.9966798951
 H          7.4288162830        3.1975334955       -0.7832547845
 H          9.0962247725        1.5083940081       -0.1112745739
 H          8.3985700681       -0.8131199381        0.3459131068
 H          5.9882898373       -1.4375983820        0.1186524254
 H          3.7274533841        0.9039930975        1.5279292957
 H          2.1995372812        1.1517395944        3.2572061217
 H         -0.0807269942        0.7010290402        4.0817533378
 H         -1.5894365042       -0.7790325578        2.8082534534
 H         -1.4862156371       -2.8394663801        1.2209606148
 C         -0.4959052598       -2.7897978710       -0.6515869245
 C         -1.3040428936       -3.2447511874       -1.8287502465
 C         -0.3078016712       -2.1373812898       -1.9868260820
 H          0.6079633269       -2.3325266920       -2.5267964430
 H         -0.6686220847       -1.1272448987       -2.1032688478
 H         -1.0781570470       -4.2074159558       -2.2620446009
 H         -2.3548576551       -2.9940311864       -1.8437075447
 H          0.2943199476       -3.4609749821       -0.3276351860
