  62
        -98.93973026
 C         -2.7016646390       -0.6867946721        0.1617002013
 C         -2.8268757657        0.3514641129        1.1149042842
 C         -3.2783581823        1.6497447437        0.5978154621
 C         -3.5430468515        1.7773913284       -0.7155943269
 C         -3.9530315418        3.0558795166       -1.3862335314
 C         -2.7301032742        3.8278173539       -1.9015194701
 C         -1.6193498788        3.9887996722       -0.8635024732
 H         -1.2033296674        3.0051158109       -0.6327086293
 H         -0.8223688872        4.5731244122       -1.3281613636
 C         -2.0618593922        4.6714691269        0.4384713710
 H         -1.3118740863        5.4148026547        0.7166428493
 H         -3.0002536417        5.2029664325        0.2771289802
 C         -2.2154901260        3.7264056248        1.6317575915
 H         -2.3167222300        4.3332705829        2.5354505354
 H         -1.3093649132        3.1250038431        1.7427608698
 C         -3.4197463480        2.7773212306        1.5816762512
 H         -3.5131732354        2.3072121445        2.5651148422
 H         -4.3300166798        3.3474967361        1.3862911340
 H         -3.0602759422        4.8116636422       -2.2395069956
 H         -2.3201475077        3.2922811197       -2.7609112531
 H         -4.5121096762        3.6675451758       -0.6808895697
 H         -4.5982541533        2.8090163231       -2.2308735714
 O         -3.4140865323        0.7565983808       -1.6006070636
 C         -2.9744696053       -0.4945954891       -1.1930945698
 O         -2.8745716430       -1.3273447734       -2.1127862869
 O         -2.5637639052        0.2019093962        2.3398138669
 C         -2.2134770224       -2.0486687607        0.6216698250
 C         -0.8871066832       -2.3614836284       -0.0282280352
 C         -0.6150171234       -3.5514574051       -0.6882478397
 C          0.6265824424       -3.7635800911       -1.2637952070
 C          1.6191016278       -2.8041136078       -1.1942124340
 C          1.3633706496       -1.6147177801       -0.5225271479
 C          0.1213565653       -1.4083856079        0.0577928795
 H         -0.0790269608       -0.4826696642        0.5845070581
 N          2.3568089849       -0.6126178282       -0.4544189872
 S          3.8628367238       -1.0633755769        0.1693275069
 O          4.5039469982       -1.9493653912       -0.7675775900
 O          3.7139820011       -1.5682975182        1.5177798638
 C          4.6970116761        0.5099846349        0.1838990865
 C          4.7831095721        1.2259269753        1.3623548944
 C          5.4145315084        2.4599297581        1.3518760899
 C          5.9426931452        2.9546846373        0.1690565003
 C          5.8477250265        2.2239651447       -1.0062242705
 C          5.2188629063        0.9892624337       -1.0024390124
 H          5.1283332182        0.3830833609       -1.8885174622
 H          6.2615396639        2.6116742878       -1.9230780913
 H          6.4337409976        3.9149795486        0.1640034565
 H          5.4917871163        3.0289875846        2.2643662681
 H          4.3652177626        0.7990965555        2.2602487440
 H          2.0233222294        0.1919409230        0.0614987948
 H          2.5880088497       -2.9646554755       -1.6373060178
 H          0.8229872507       -4.6911544332       -1.7802307883
 H         -1.3750533269       -4.3119031921       -0.7589017182
 H         -2.0427468426       -1.9469595502        1.7042238909
 C         -3.2725800357       -3.1056174151        0.3951110333
 C         -3.3173031687       -4.3246347984        1.2656893409
 C         -4.3650376897       -3.2630466147        1.4084264814
 H         -5.3650983561       -3.4725713193        1.0598526731
 H         -4.3313979251       -2.6230403149        2.2781665170
 H         -3.6005760178       -5.2664656204        0.8206370081
 H         -2.5733622688       -4.4106673453        2.0433786309
 H         -3.5413858956       -3.2099002981       -0.6498245725
