  62
        -98.93623795
 C          1.8040772448        1.3873916011        0.2477564196
 C          1.9098475397        0.1533999746       -0.4378186286
 C          3.2754851514       -0.3603613974       -0.6219702990
 C          4.3242981612        0.3527085931       -0.1740779371
 C          5.7809837605        0.0030158168       -0.3271665229
 C          6.2607275018       -1.2570390676        0.4190827137
 C          6.2492006301       -2.5362516170       -0.4270534592
 H          6.3220634637       -2.2613270503       -1.4800312053
 H          7.1424838464       -3.1191422373       -0.1932896754
 C          5.0461949491       -3.4622311750       -0.2222701445
 H          5.1827699788       -4.0247346991        0.7043142041
 H          5.0346925109       -4.1819873978       -1.0436840990
 C          3.6814039570       -2.7776225237       -0.1446269850
 H          3.5679176228       -2.2961792282        0.8297942322
 H          2.9097509144       -3.5484388900       -0.1971160714
 C          3.4278567649       -1.7208987269       -1.2373183326
 H          4.2328825145       -1.7247346807       -1.9705801972
 H          2.4901151509       -1.9380995530       -1.7523150255
 H          7.2883546528       -1.0663994556        0.7327823704
 H          5.6681001214       -1.3926073844        1.3235946691
 H          6.0075468116       -0.0984322737       -1.3909422852
 H          6.3287480231        0.8695024860        0.0490570151
 O          4.1777601857        1.5474102658        0.4628951637
 C          2.9233170860        2.0829168261        0.7036772288
 O          2.9353882493        3.1676307121        1.3214600385
 O          0.9220085416       -0.4867375336       -0.8780744190
 C          0.4422844855        2.0055375483        0.4972915240
 C         -0.4634550254        1.0698201146        1.2619408001
 C          0.0632926461        0.1824448632        2.1950444204
 C         -0.7538470280       -0.6937291298        2.8848674890
 C         -2.1216526802       -0.6939310874        2.6746045450
 C         -2.6620066688        0.2071061965        1.7693894792
 C         -1.8382833713        1.0807721657        1.0706015114
 H         -2.2776565245        1.7697208367        0.3651727551
 N         -4.0605189741        0.2010838530        1.5543872233
 S         -4.6332005994       -1.0749175657        0.6271423684
 O         -6.0634095037       -0.8880324760        0.5352600516
 O         -4.1813471287       -2.3097185725        1.2129788644
 C         -3.8846832810       -0.8135478933       -0.9698181454
 C         -4.6211837217       -0.1980872554       -1.9636016677
 C         -4.0043128305        0.0983663656       -3.1679010660
 C         -2.6622704022       -0.2033659550       -3.3487743912
 C         -1.9354402503       -0.8163650707       -2.3399321876
 C         -2.5513628015       -1.1286882899       -1.1381726365
 H         -2.0032956999       -1.6031637799       -0.3404747110
 H         -0.8846600144       -1.0297563474       -2.4547795015
 H         -2.1773368135        0.0426339229       -4.2807649043
 H         -4.5660011856        0.5722867149       -3.9569916484
 H         -5.6585667588        0.0277095597       -1.7752277690
 H         -4.4038338055        1.0655937363        1.1572810183
 H         -2.7719329669       -1.3853246515        3.1847693236
 H         -0.3212955727       -1.3846896396        3.5929453159
 H          1.1311444529        0.1759763150        2.3664694233
 H          0.6224486413        2.8931222190        1.1223413142
 C         -0.1659312314        2.4505021222       -0.8200962385
 C         -0.9849339735        3.7028982496       -0.9026938781
 C          0.3898462428        3.6654357196       -1.4976468908
 H          0.4901561667        3.6576002386       -2.5723643011
 H          1.1829123796        4.1947232308       -0.9890030570
 H         -1.8302508917        3.7232483502       -1.5744205400
 H         -1.1242482485        4.2741497961        0.0030963886
 H         -0.4488756042        1.6127107438       -1.4472900034
