  62
        -98.94393641
 C         -1.8301030491       -1.1328295918        0.2254501135
 C         -2.1668599052       -0.1126494017       -0.6962488574
 C         -3.5969637825        0.0110168317       -1.0166661420
 C         -4.4759092213       -0.8392040399       -0.4552067434
 C         -5.9630719022       -0.7894621880       -0.6511414566
 C         -6.6349782751        0.0823046202        0.4190972158
 C         -5.9772653056        1.4497995202        0.6044299871
 H         -6.5520457919        1.9875527928        1.3615656206
 H         -4.9700450338        1.3109146248        1.0040054396
 C         -5.8997270699        2.2953457088       -0.6743746831
 H         -6.6025909610        1.9125298950       -1.4152181626
 H         -6.2028587846        3.3174148277       -0.4376278656
 C         -4.5043813913        2.3781241700       -1.2965124508
 H         -4.5161334946        3.1651879877       -2.0554087412
 H         -3.7778546090        2.6716140718       -0.5341465239
 C         -3.9985849389        1.0978950788       -1.9735052536
 H         -3.0931363030        1.3538317500       -2.5320438331
 H         -4.7472232015        0.7343963517       -2.6805387345
 H         -7.6837494962        0.2150628327        0.1475960598
 H         -6.5950974178       -0.4485421985        1.3730214369
 H         -6.3537591669       -1.8056816161       -0.5769990875
 H         -6.1806402503       -0.3982656228       -1.6429908386
 O         -4.1096024574       -1.8227578049        0.4057932132
 C         -2.7851074695       -1.9862705352        0.7775711026
 O         -2.5888188951       -2.9085267935        1.5944385255
 O         -1.3211219932        0.6574823905       -1.2224655263
 C         -0.3826793679       -1.3344791825        0.6360150547
 C          0.1968474293       -0.0466771897        1.1676681609
 C         -0.5314489516        0.6830128990        2.1040949738
 C         -0.0394708682        1.8679129627        2.6143988207
 C          1.1920366864        2.3488999893        2.2059636254
 C          1.9363345766        1.6202921972        1.2862326381
 C          1.4421333616        0.4245367683        0.7814080988
 H          2.0299441588       -0.1185042797        0.0607590741
 N          3.2095134287        2.0593000664        0.9044754811
 S          3.8780366162        1.7104678146       -0.5845362576
 O          4.9850271078        2.6383061937       -0.6945414223
 O          2.9108423934        1.7555731726       -1.6548636811
 C          4.5328011091        0.0636324919       -0.4083041894
 C          4.4994489261       -0.7856067398       -1.4963997276
 C          5.0557858937       -2.0501213114       -1.3795233502
 C          5.6320290193       -2.4419841643       -0.1811371853
 C          5.6576849831       -1.5769578798        0.9021348874
 C          5.1084969417       -0.3096747949        0.7900099462
 H          5.1128773814        0.3871926638        1.6111482820
 H          6.1052351127       -1.8858052142        1.8330108906
 H          6.0612288553       -3.4273850580       -0.0920047508
 H          5.0366306147       -2.7232477674       -2.2221843097
 H          4.0289071164       -0.4445439935       -2.4052631904
 H          3.4713619535        2.9752507727        1.2367322337
 H          1.5738429802        3.2802752799        2.5954498984
 H         -0.6210615427        2.4271604819        3.3320260321
 H         -1.4974970018        0.3106231428        2.4181597515
 H         -0.4009193410       -2.0658831120        1.4577581021
 C          0.4086938566       -1.9212870745       -0.5146302812
 C          1.5677094664       -2.8314251809       -0.2426681737
 C          0.2910473823       -3.3882124863       -0.7953641868
 H          0.2708843298       -3.7159196616       -1.8238629154
 H         -0.3453397526       -3.9656076309       -0.1404396227
 H          2.4289825141       -2.7778847012       -0.8911442294
 H          1.8059955396       -3.0401366795        0.7892021155
 H          0.4689525190       -1.2500063645       -1.3647372155
