  62
        -98.94601648
 C         -1.9363424488       -1.3166426206        0.2036634598
 C         -1.7481402586        0.0838133772        0.1287183718
 C         -2.9299493440        0.9006564933        0.4305807939
 C         -4.0920374449        0.3037603008        0.7524133423
 C         -5.3799653979        1.0017921345        1.0962266266
 C         -6.2061861539        1.4244286632       -0.1264664043
 C         -5.6468897895        2.6107501113       -0.9130964746
 H         -6.4305882795        2.9369230334       -1.5997847909
 H         -5.4486924969        3.4371796528       -0.2299366102
 C         -4.3820271161        2.2947074118       -1.7237306874
 H         -4.2798838445        1.2123914954       -1.8325992207
 H         -4.4815136005        2.7083472711       -2.7298919503
 C         -3.0904641133        2.8555955705       -1.1286241853
 H         -2.2568095886        2.5385513712       -1.7605112011
 H         -3.1259749524        3.9472474970       -1.1398217617
 C         -2.8047521017        2.3889797793        0.3044347467
 H         -1.7750398900        2.6553266513        0.5544477911
 H         -3.4750405264        2.8883253854        1.0035606338
 H         -6.3120183615        0.5638817443       -0.7911756384
 H         -7.2032486933        1.6914929631        0.2313718026
 H         -5.9703303655        0.2939486978        1.6820102384
 H         -5.1707301007        1.8749944628        1.7147727497
 O         -4.2278242820       -1.0477573356        0.8225186446
 C         -3.1621852915       -1.8883739219        0.5428035112
 O         -3.4256535123       -3.1043327460        0.6391076338
 O         -0.6527005778        0.6255143031       -0.1681487418
 C         -0.7775167583       -2.2474388740       -0.1037382154
 C          0.4078537780       -1.9020502050        0.7643612198
 C          0.2223326850       -1.7866503882        2.1403992395
 C          1.2779741179       -1.4682566771        2.9715644695
 C          2.5413801959       -1.2511526219        2.4485830581
 C          2.7405838809       -1.3745218119        1.0795134413
 C          1.6793174575       -1.7110808637        0.2480129126
 H          1.8648183688       -1.7997845803       -0.8088082512
 N          4.0206155708       -1.1961816688        0.5259092690
 S          4.2789170364       -0.1868149353       -0.7827959158
 O          3.4920816804       -0.6228726483       -1.9067776848
 O          5.7141061088       -0.1980292293       -0.9661032500
 C          3.7699356681        1.4358258998       -0.2422406611
 C          2.4258791593        1.7361420848       -0.1476357591
 C          2.0573885210        2.9923496858        0.3092987129
 C          3.0251220804        3.9196702368        0.6612884467
 C          4.3711098357        3.5998615320        0.5622443088
 C          4.7483980854        2.3462063466        0.1103730608
 H          5.7819086504        2.0554559572        0.0121551523
 H          5.1242587998        4.3214581569        0.8353317923
 H          2.7283222455        4.8952066485        1.0133991363
 H          1.0072572753        3.2259224715        0.3842455590
 H          1.6755729413        1.0106587307       -0.4186851859
 H          4.7454003096       -1.0441761282        1.2130793178
 H          3.3662008412       -0.9943555325        3.0959061310
 H          1.1164430427       -1.3801586278        4.0354080662
 H         -0.7672932554       -1.9466639197        2.5473324892
 H         -1.1168171526       -3.2589950995        0.1640364796
 C         -0.4691746820       -2.2168072757       -1.5865289826
 C          0.1242474400       -3.4159972478       -2.2602951182
 C         -1.3025438271       -3.0389431839       -2.5209266507
 H         -1.5603614469       -2.6239970764       -3.4839329251
 H         -2.0817042653       -3.6470282955       -2.0840825834
 H          0.8516462175       -3.2574134683       -3.0425299731
 H          0.3145687279       -4.2878940288       -1.6526458174
 H         -0.1568839156       -1.2370572381       -1.9316828127
