  62
        -98.93653473
 C         -1.1982039998       -0.6723099589        0.6426421896
 C         -2.0179908294       -0.6466027893       -0.5117134807
 C         -2.9730493493        0.4672877807       -0.5838582115
 C         -2.9783331496        1.4114863611        0.3739243281
 C         -3.8712296595        2.6219933511        0.4199216373
 C         -5.2613025898        2.3534414314        1.0130815169
 C         -6.2076786495        1.5529279711        0.1173959069
 H         -7.2043454496        1.6287005313        0.5566168065
 H         -6.2501421591        2.0166477607       -0.8685675733
 C         -5.8414791495        0.0689342210       -0.0242631224
 H         -5.1487376198       -0.2122008787        0.7721733380
 H         -6.7388986196       -0.5409055289        0.1008197475
 C         -5.2227154590       -0.3055316995       -1.3709915220
 H         -5.9549187987       -0.1513985298       -2.1665831024
 H         -4.9674050491       -1.3678275295       -1.3478209815
 C         -3.9507812589        0.4783960003       -1.7198877919
 H         -3.4697911086       -0.0064833001       -2.5730668415
 H         -4.2018408387        1.5023946002       -1.9966017124
 H         -5.7205266998        3.3237032715        1.2159767864
 H         -5.1390734802        1.8374877418        1.9682201272
 H         -3.9746089992        3.0375292507       -0.5830874829
 H         -3.3626604497        3.3578498413        1.0470144872
 O         -2.1273555000        1.3840223114        1.4348855784
 C         -1.2224988101        0.3472874214        1.5924336392
 O         -0.4967194805        0.4466876518        2.6050147494
 O         -1.9538332191       -1.4956177797       -1.4357048304
 C         -0.1828094799       -1.7927113089        0.8308398404
 C          0.7275547805       -1.8148548994       -0.3772875693
 C          1.1413177607       -2.9080050898       -1.1270303487
 C          2.0145403111       -2.7431228302       -2.1913611684
 C          2.5177801513       -1.5017174804       -2.5276124887
 C          2.1145365911       -0.3968878201       -1.7856817593
 C          1.2349052807       -0.5668908196       -0.7327550296
 H          0.9107377506        0.3060154606       -0.1882044800
 N          2.5815176213        0.8917256398       -2.0815311496
 S          2.7741055309        2.0197118403       -0.8645276700
 O          1.4940775508        2.5251583805       -0.4337309207
 O          3.6760845612        2.9983285200       -1.4353307801
 C          3.6038515004        1.1428894507        0.4496596806
 C          2.9548801799        0.8374526912        1.6282076605
 C          3.6344234895        0.1119446516        2.5953597111
 C          4.9412337196       -0.2909250886        2.3717104217
 C          5.5835066400        0.0336489509        1.1860414718
 C          4.9094730004        0.7542648506        0.2148508513
 H          5.3768842908        1.0369963902       -0.7143229387
 H          6.6024171601       -0.2746175892        1.0162179623
 H          5.4611879893       -0.8579182983        3.1275969521
 H          3.1276118292       -0.1351686780        3.5147788610
 H          1.9352760999        1.1564145813        1.7843904500
 H          3.3153513315        0.9395242895       -2.7721289894
 H          3.1991331116       -1.3828642307       -3.3555636285
 H          2.3115681613       -3.6075110205       -2.7658021480
 H          0.7842449306       -3.8989738597       -0.9157427684
 H          0.4475905398       -1.4718145986        1.6784178905
 C         -0.9296812702       -3.0297080787        1.3078644006
 C         -1.4969667299       -4.0990453890        0.4292209708
 C         -0.3737511503       -4.4213340787        1.3710234914
 H         -0.6076658906       -5.0085426983        2.2471217515
 H          0.6133091199       -4.6072841589        0.9820318018
 H         -2.4842174900       -4.4693883289        0.6657488506
 H         -1.3140169295       -4.0284651894       -0.6301888291
 H         -1.5524164305       -2.7468167783        2.1552217903
