  62
        -98.93788156
 C         -1.7370506948       -0.3371994396       -0.5003770782
 C         -2.9829160711       -0.8608006184       -0.9112908013
 C         -4.1341886899       -0.6311104445       -0.0166689958
 C         -3.9354750547        0.0440982169        1.1309827739
 C         -4.9528134831        0.4284439695        2.1720373230
 C         -5.8277607605        1.6147950396        1.7352437809
 C         -6.3277331838        1.5494637300        0.2944068706
 H         -6.8343449999        2.4932128378        0.0757034938
 H         -5.4719339012        1.4780085880       -0.3793053921
 C         -7.3052932899        0.4154600700       -0.0048517775
 H         -7.6409351836        0.5402978684       -1.0376209060
 H         -8.1798135145        0.5159975510        0.6419928115
 C         -6.7512616340       -1.0028186936        0.1454583683
 H         -6.6930563638       -1.2922438393        1.1913502952
 H         -7.4676766162       -1.6833037819       -0.3243095337
 C         -5.4110632691       -1.2405500336       -0.5434877756
 H         -5.2273680353       -2.3213980582       -0.5827698165
 H         -5.4859277258       -0.9248621985       -1.5904428996
 H         -5.2353933972        2.5269892133        1.8400606952
 H         -6.6781205413        1.6852784337        2.4155948353
 H         -5.5648179759       -0.4304643715        2.4311230193
 H         -4.3940448611        0.7189749929        3.0645075205
 O         -2.7118909609        0.5272371745        1.4895754895
 C         -1.5890819803        0.3569735096        0.6999867910
 O         -0.5491830450        0.8551051309        1.1673580997
 H          2.1775569274       -0.3061546684       -1.7198284367
 C          1.9119842259       -1.0404878809       -0.9745794244
 C          0.5756712883       -1.2815162651       -0.6863700707
 C          0.2730474235       -2.2498163483        0.2660735704
 C          1.2745160889       -2.9272088809        0.9362246002
 C          2.6056438127       -2.6674336654        0.6608921000
 C          2.9197347590       -1.7256991865       -0.3073166857
 N          4.2823090154       -1.4610914318       -0.5824022901
 S          5.0746791353       -0.5331633229        0.5689217524
 O          6.4379768301       -0.4051175768        0.1067411102
 O          4.8862085631       -1.1409849589        1.8599733908
 C          4.2556208176        1.0482408551        0.4811854365
 C          3.0084016624        1.1822634233        1.0572407508
 C          2.3164472725        2.3716730877        0.8899379774
 C          2.8851890809        3.4026369876        0.1579842592
 C          4.1438544632        3.2562474802       -0.4071872887
 C          4.8334152727        2.0645715945       -0.2551915176
 H          5.8090452274        1.9028099213       -0.6848124397
 H          4.5826593061        4.0628616237       -0.9725072081
 H          2.3410620604        4.3250279883        0.0263562975
 H          1.3275401505        2.4593576111        1.3116793598
 H          2.5827901924        0.3681510518        1.6213104656
 H          4.4296108062       -1.0418921118       -1.4909869877
 H          3.4002687455       -3.1673367784        1.1897896254
 H          1.0162439014       -3.6641928815        1.6818654853
 H         -0.7643449690       -2.4598373256        0.4881484551
 C         -0.5288104970       -0.5345690806       -1.3937410373
 H         -0.8841066814       -1.1592953714       -2.2278317373
 C         -0.0679875975        0.8013582743       -1.9452900181
 C          0.4762042935        0.9105451261       -3.3378364577
 C         -0.8809550494        1.4591501006       -3.0182501458
 H         -1.0133410967        2.5298871287       -2.9834261424
 H         -1.7468719283        0.9236880947       -3.3798471774
 H          1.2775592254        1.6098304056       -3.5247835412
 H          0.5266251682        0.0092227141       -3.9303655767
 H          0.3586362361        1.4388599373       -1.1787000226
 O         -3.1360295825       -1.4985633624       -1.9893482934
