  62
        -98.94075212
 C          2.0143736371        1.3393881204        0.3693906421
 C          2.4992372190        0.6372266590       -0.7620882093
 C          3.7014252840       -0.1831909845       -0.5395177546
 C          4.2531432654       -0.2366875102        0.6855295838
 C          5.4405025842       -1.0749983951        1.0589606572
 C          5.0052643487       -2.4575689510        1.5647370650
 C          3.9970897000       -3.1593958714        0.6543912056
 H          3.7860701443       -4.1365663167        1.0945342074
 H          3.0596183166       -2.5979385761        0.6576249115
 C          4.4699644149       -3.3428080348       -0.7945297865
 H          5.5536114141       -3.2313041865       -0.8471419550
 H          4.2328959686       -4.3599925112       -1.1134767595
 C          3.8136616092       -2.3963054396       -1.8016640102
 H          2.7267160724       -2.4365357218       -1.6899801346
 H          4.0507379676       -2.7536740316       -2.8073317199
 C          4.2523516496       -0.9285449045       -1.7223634808
 H          5.3424043719       -0.8682976310       -1.7439613394
 H          3.8609666058       -0.4189695210       -2.6077624306
 H          5.8942374530       -3.0812937404        1.6740102041
 H          4.5506409738       -2.3385014204        2.5510732971
 H          6.0909737353       -1.1812955988        0.1931279381
 H          5.9874300572       -0.5635335057        1.8529170975
 O          3.7476321064        0.4340513090        1.7522474813
 C          2.6094602284        1.2144554590        1.6270650051
 O          2.2249148681        1.7315331511        2.6953455334
 H         -0.2221903342       -0.1640162034        0.9372025323
 C         -0.7130126570        0.2248635691        0.0525348420
 C         -0.3217708938        1.4626447972       -0.4455007850
 C         -0.9609928396        1.9523853154       -1.5757950336
 C         -1.9457441557        1.2070995739       -2.2018117715
 C         -2.3177581693       -0.0319515147       -1.7155749720
 C         -1.6916331130       -0.5268009674       -0.5779390153
 N         -2.0680466683       -1.7816073003       -0.0690344231
 S         -3.7012019907       -2.1307795090        0.0306148663
 O         -3.8183532460       -3.0832856117        1.1127407033
 O         -4.1833059245       -2.5763044893       -1.2528636084
 C         -4.4844984202       -0.5880104272        0.4665843769
 C         -5.4112880176       -0.0197552403       -0.3831499015
 C         -5.9823553301        1.1944463524       -0.0366022071
 C         -5.6149181395        1.8178993955        1.1454806290
 C         -4.6845536698        1.2324443489        1.9908195381
 C         -4.1124623122        0.0177067101        1.6505044146
 H         -3.3903726897       -0.4657284034        2.2892593045
 H         -4.3997029952        1.7182792360        2.9103532786
 H         -6.0556926042        2.7654072142        1.4122608006
 H         -6.7076905306        1.6509807922       -0.6905045823
 H         -5.6655576699       -0.5374215427       -1.2936472540
 H         -1.5824052859       -2.0477735623        0.7742875910
 H         -3.0673822591       -0.6320532350       -2.2053607326
 H         -2.4251555380        1.5941271855       -3.0878812238
 H         -0.6692293637        2.9048761747       -1.9856495705
 C          0.7653651403        2.2019105890        0.2962465809
 H          0.4381830711        2.3110553932        1.3437556361
 C          1.0056998816        3.6105299767       -0.2258382575
 C          2.3387006672        4.2766117667       -0.0637088301
 C          1.8554207693        3.8896552103       -1.4275322951
 H          1.5464597177        4.6756064457       -2.1012666793
 H          2.3159989726        3.0485540199       -1.9202720073
 H          2.3597498902        5.3234838804        0.1997741270
 H          3.1368837151        3.6996337281        0.3808861091
 H          0.1359260437        4.2450944595       -0.0867635127
 O          1.9680646384        0.6816877310       -1.9006086333
