  62
        -98.93949326
 C         -1.4616828190       -1.6032705303        0.0070329309
 C         -1.3873669891       -0.1920392703       -0.0201032792
 C         -2.6213312291        0.5427172497        0.3289946508
 C         -3.7201538991       -0.1569968304        0.6667717408
 C         -5.0865238991        0.3729458296        1.0106315008
 C         -5.8728898991        0.8287340694       -0.2303603192
 C         -5.0615960392        1.6185972694       -1.2546789493
 H         -4.2040882191        1.0211187995       -1.5698788892
 H         -5.6933343292        1.7666209693       -2.1347010493
 C         -4.5816516593        2.9910825295       -0.7888201494
 H         -4.0771860793        3.4628245595       -1.6359314294
 H         -5.4488138193        3.6053461095       -0.5355862894
 C         -3.6210825593        2.9948621796        0.4015884906
 H         -4.1537650093        2.8135407997        1.3310322306
 H         -3.2015024493        4.0022482297        0.4756155506
 C         -2.4384067992        2.0398102197        0.2720349507
 H         -1.9183599892        2.2383562497       -0.6714594293
 H         -1.7091277992        2.2755213398        1.0561894507
 H         -6.2581056291       -0.0632870206       -0.7304458892
 H         -6.7258627692        1.4239240294        0.0999493907
 H         -5.6316552291       -0.4457096304        1.4854930608
 H         -5.0015782192        1.1775833696        1.7349536907
 O         -3.7369032590       -1.5211849004        0.6975856609
 C         -2.6258374289       -2.2748817903        0.3769418010
 O         -2.7928671989       -3.5090110603        0.4617179911
 H          2.1850017110       -1.1846812801       -0.8517648191
 C          2.0344961610       -1.4427712700        0.1821321309
 C          0.8800321410       -2.0879686801        0.5932826910
 C          0.7332604711       -2.4038212300        1.9423008610
 C          1.7185775510       -2.0818363699        2.8547334410
 C          2.8653212210       -1.4242611098        2.4432441309
 C          3.0191690510       -1.1027786799        1.1004345309
 N          4.1766382209       -0.4494226299        0.6531278909
 S          4.1118270409        0.6971922100       -0.5568708992
 O          3.9055718009        0.0660175499       -1.8364677992
 O          5.3620717408        1.4177063601       -0.4163220492
 C          2.7689495308        1.8084688300       -0.1791617193
 C          2.5853800708        2.2244772301        1.1236736207
 C          1.5915088307        3.1489886400        1.3971647306
 C          0.8100220207        3.6487015599        0.3679270906
 C          1.0082683307        3.2220337998       -0.9343663594
 C          1.9948929008        2.2912521999       -1.2122453793
 H          2.1720942708        1.9230354898       -2.2101447493
 H          0.3938540807        3.6051435997       -1.7336700994
 H          0.0378557406        4.3711012999        0.5827284705
 H          1.4284667407        3.4754586901        2.4122502006
 H          3.2087219108        1.8275145802        1.9086293607
 H          4.8285152909       -0.1860856098        1.3772442509
 H          3.6357359910       -1.1667394197        3.1541948509
 H          1.5924236710       -2.3375831598        3.8959531410
 H         -0.1704767989       -2.9049081000        2.2626141010
 C         -0.2431659889       -2.4362916702       -0.3512611790
 H         -0.5282870589       -3.4833296602       -0.1759200389
 C          0.1115983911       -2.2666820103       -1.8129262690
 C          0.9401725711       -3.3073674103       -2.5019415989
 C         -0.5161900989       -3.1707205904       -2.8286130190
 H         -0.7943585189       -2.7566948305       -3.7862717190
 H         -1.1957070488       -3.9291238204       -2.4672404089
 H          1.6674881911       -2.9856728703       -3.2321085190
 H          1.2511359312       -4.1620685802       -1.9201996989
 H          0.2612159510       -1.2309705103       -2.0954461791
 O         -0.3449522291        0.4402966098       -0.3300047692
