  62
        -98.94414084
 C          2.2017790647        0.7848972134       -0.0296262949
 C          2.8940976795        0.0792921326        0.9822897938
 C          3.6812237721       -1.0779821191        0.5361419187
 C          3.6694847145       -1.4177424030       -0.7661362280
 C          4.4645096136       -2.5405341963       -1.3658131476
 C          5.8373550691       -2.0520964950       -1.8489643897
 C          6.5989760929       -1.2266403843       -0.8119754526
 H          6.0605131733       -0.2929458399       -0.6342151129
 H          7.5634416147       -0.9626298736       -1.2509433415
 C          6.8257752833       -1.9423651868        0.5269929407
 H          7.8605021814       -1.7842030676        0.8381449812
 H          6.6861016564       -3.0167112950        0.4017172034
 C          5.9374126441       -1.4464151247        1.6694539934
 H          6.0038008265       -0.3576737330        1.7392229832
 H          6.3247313769       -1.8581365090        2.6052760705
 C          4.4558897583       -1.8337291323        1.5790796935
 H          3.9886298694       -1.5866182263        2.5372137271
 H          4.3659917181       -2.9107843127        1.4223635280
 H          5.6916059904       -1.4345169578       -2.7381556557
 H          6.4324141467       -2.9219359928       -2.1328580704
 H          3.9096127167       -2.9377450142       -2.2173918123
 H          4.5875103345       -3.3284616136       -0.6251801887
 O          2.9578586752       -0.7407378032       -1.7027660365
 C          2.2124021708        0.3797903527       -1.3647375589
 O          1.6160649207        0.9078480025       -2.3208174655
 O          2.8497908796        0.3979810910        2.2024945630
 C          1.3832408040        2.0045881703        0.3509065033
 C         -0.0716616481        1.7895611549        0.0110594700
 C         -0.8587671820        2.7447678622       -0.6178749573
 C         -2.1913773626        2.4861261722       -0.8898911823
 C         -2.7676605608        1.2792138286       -0.5409418397
 C         -1.9942371616        0.3218613727        0.1031179728
 C         -0.6616907275        0.5858932005        0.3782448893
 H         -0.0608564277       -0.1612760226        0.8834636791
 N         -2.5687185113       -0.9123570520        0.4564320918
 S         -4.0006003792       -0.8955531633        1.3347594529
 O         -4.1079365278        0.2944059879        2.1468935676
 O         -4.0266848005       -2.1591654253        2.0388355952
 C         -5.2699473920       -0.9006588043        0.0865329731
 C         -6.2219068830        0.0998186938        0.0673180381
 C         -7.2047690974        0.0704877834       -0.9098892836
 C         -7.2186029789       -0.9537597572       -1.8442035937
 C         -6.2568065389       -1.9525941490       -1.8093347162
 C         -5.2720229634       -1.9295803657       -0.8347794440
 H         -4.5090358107       -2.6874877958       -0.7709373175
 H         -6.2707656931       -2.7474236812       -2.5376397851
 H         -7.9834775881       -0.9742500896       -2.6043549771
 H         -7.9534460013        0.8457493658       -0.9387516454
 H         -6.1680823595        0.8784706066        0.8113990413
 H         -1.9122595036       -1.5618858142        0.8648212529
 H         -3.8025009621        1.0721914224       -0.7589567311
 H         -2.7888121690        3.2353685270       -1.3863547304
 H         -0.4284970849        3.6913900097       -0.9001572266
 H          1.4654853840        2.0819821814        1.4459943152
 C          1.9749377613        3.2525737356       -0.2702442052
 C          1.8308671932        4.5791198847        0.4120354535
 C          3.1618835384        3.8917088308        0.3839713695
 H          3.9412122088        4.2969693700       -0.2438113503
 H          3.5264546899        3.4425829424        1.2965922515
 H          1.6987342601        5.4608063929       -0.1966954333
 H          1.2937822340        4.6040531836        1.3482419979
 H          1.9549755022        3.2261622320       -1.3539132021
