  62
        -98.93154004
 C         -2.2175338304       -0.6933126221        0.1785708342
 C         -3.5281154081       -1.1163282473        0.5082251032
 C         -4.6495982675       -0.4347055916       -0.1665800131
 C         -4.3722612196        0.5603154613       -1.0290614362
 C         -5.3383605377        1.4188164975       -1.8012172353
 C         -6.0079520018        2.4911535851       -0.9259623941
 C         -6.4776233647        2.0044388429        0.4425909033
 H         -5.6273049152        1.5872858454        0.9852287313
 H         -6.8235228250        2.8765088196        1.0037963347
 C         -7.6140518260        0.9851269034        0.4171461806
 H         -7.8990677167        0.7911036386        1.4543405124
 H         -8.4774114463        1.4242135305       -0.0876722988
 C         -7.2949794152       -0.3561612481       -0.2459617395
 H         -7.3064259942       -0.2703077519       -1.3291735411
 H         -8.0988675486       -1.0492778795        0.0187633430
 C         -5.9941158417       -1.0038796012        0.2182490642
 H         -5.9819556548       -2.0455671645       -0.1251812929
 H         -5.9928530521       -1.0631342861        1.3125379114
 H         -6.8528122683        2.9076696575       -1.4769119933
 H         -5.2829428427        3.2922568156       -0.7625804073
 H         -4.7592507318        1.9184402454       -2.5809733599
 H         -6.0818993025        0.7955310224       -2.2891363673
 O         -3.0950698654        0.9639294674       -1.2851920133
 C         -1.9910530647        0.3658088810       -0.7000163506
 O         -0.9041196626        0.8709587770       -1.0401025791
 O         -3.7610676293       -2.0286733288        1.3462107877
 C         -1.0591289209       -1.4035638965        0.8536678032
 C         -0.0412701764       -0.4072172300        1.3488768242
 C         -0.4414287871        0.5485792077        2.2793443116
 C          0.4503229110        1.4922719632        2.7489035714
 C          1.7615200551        1.4979551833        2.3073526515
 C          2.1764377404        0.5389406873        1.3906866037
 C          1.2764957019       -0.4071181479        0.9200728889
 H          1.6142237479       -1.1209817305        0.1891588090
 N          3.5220989938        0.4980001057        0.9836751721
 S          3.9844675610       -0.0727516995       -0.5325289730
 O          3.4108875769        0.7308025433       -1.5887614629
 O          3.7432710732       -1.4920899688       -0.5976228234
 C          5.7411443907        0.2227606681       -0.4255726183
 C          6.2983556329        1.3003219990       -1.0869300446
 C          7.6620440733        1.5239381048       -0.9757301529
 C          8.4406261368        0.6724095955       -0.2067975310
 C          7.8673037767       -0.4059948946        0.4509137882
 C          6.5052370311       -0.6358090903        0.3423113663
 H          6.0175131313       -1.4652595374        0.8269711850
 H          8.4763743534       -1.0675403285        1.0455609908
 H          9.5014362124        0.8481529282       -0.1223115142
 H          8.1106787203        2.3592268942       -1.4889497309
 H          5.6546732516        1.9309667837       -1.6791413912
 H          4.0136314119        1.3558732150        1.1959822442
 H          2.4574306531        2.2397951199        2.6688891425
 H          0.1225999345        2.2349026075        3.4610497876
 H         -1.4694662402        0.5498312730        2.6166595369
 H         -1.5124644272       -1.8904354592        1.7342569210
 C         -0.4452964952       -2.5137268024        0.0138177826
 C         -1.2441443194       -3.2470052980       -1.0203401458
 C         -0.1334557100       -2.3339315598       -1.4405923630
 H          0.7802629036       -2.7650515310       -1.8246722774
 H         -0.3827661042       -1.3853615538       -1.8911187469
 H         -1.1003125355       -4.3124925645       -1.1178118595
 H         -2.2608829482       -2.9242580950       -1.1913307418
 H          0.2588710812       -3.1115870924        0.5852896040
