  62
        -98.93960622
 C         -0.2187247265       -1.8185047292        0.6646623999
 C         -1.0229797221       -1.9390106629       -0.4930524547
 C         -2.3610267037       -1.3363546427       -0.4096118544
 C         -2.7364589317       -0.6973007968        0.7129307126
 C         -4.0820512088       -0.0794137007        0.9915151957
 C         -4.4943689099        1.1060229146        0.0981977341
 C         -5.3344824960        0.7204837413       -1.1254359084
 H         -5.8268580909       -0.2333163881       -0.9324025901
 H         -6.1267417102        1.4601078101       -1.2570771894
 C         -4.5682251048        0.6432377663       -2.4492336291
 H         -4.3970473302        1.6548927490       -2.8233052615
 H         -5.2008210292        0.1275954243       -3.1750076220
 C         -3.2121137545       -0.0597526834       -2.3867586280
 H         -2.8616092298       -0.2199845571       -3.4082579842
 H         -2.4774188902        0.5922306249       -1.9079416981
 C         -3.2266069463       -1.4040167625       -1.6339446310
 H         -4.2444192253       -1.6854724845       -1.3675455219
 H         -2.8073531725       -2.1890926303       -2.2665611329
 H         -3.6032729468        1.6479946869       -0.2132086682
 H         -5.0891274587        1.7767917057        0.7199076378
 H         -4.8421413964       -0.8618336595        0.9279406961
 H         -4.0368753068        0.2543658135        2.0299037366
 O         -1.9168437167       -0.5783872160        1.7943465309
 C         -0.6449522472       -1.1249854932        1.7963528554
 O         -0.0014227909       -0.9305799146        2.8481128200
 H          1.3740483319        0.2168066314        0.2799230184
 C          1.9635794387       -0.3170068380       -0.4515120872
 C          1.9967873297       -1.7055014611       -0.4102671194
 C          2.7625992796       -2.3798135087       -1.3513074534
 C          3.4615589052       -1.6741156265       -2.3158930263
 C          3.4284739141       -0.2923694885       -2.3501807177
 C          2.6732433216        0.3928553850       -1.4046028674
 N          2.5991346995        1.7942072423       -1.4071974433
 S          2.6015341316        2.6205940017        0.0489706773
 O          3.0487756652        3.9532702483       -0.2999927676
 O          3.3871368380        1.9313829400        1.0457560071
 C          0.8951634128        2.7166171104        0.5437800637
 C          0.5214389091        2.2823935983        1.7994997102
 C         -0.7987714688        2.4269446143        2.1949139970
 C         -1.7160800894        3.0061612340        1.3332029639
 C         -1.3266086077        3.4320831082        0.0715137100
 C         -0.0086817744        3.2887785556       -0.3299664135
 H          0.3346518089        3.6157932262       -1.2974339751
 H         -2.0452733271        3.8803595026       -0.5964171841
 H         -2.7399110732        3.1259252777        1.6503613163
 H         -1.1002995512        2.0741703710        3.1682101839
 H          1.2586546064        1.8258692851        2.4419084176
 H          3.1776555794        2.2503873339       -2.0976883361
 H          3.9776180392        0.2546391763       -3.1014810466
 H          4.0461436182       -2.2090513327       -3.0490310686
 H          2.8059688122       -3.4563379716       -1.3368079781
 C          1.1881887935       -2.3886504620        0.6667744998
 H          1.6278162271       -2.1179190651        1.6385251365
 C          1.1577311209       -3.8973077069        0.5465886044
 C          2.2742761300       -4.7197958414        1.1138928852
 C          0.9318526096       -4.7172551354        1.7797594149
 H          0.3163428051       -5.6011814060        1.7062289515
 H          0.8241209358       -4.1869959682        2.7151115447
 H          2.5807586552       -5.6099004550        0.5854295096
 H          3.0825506388       -4.1961224951        1.6021256994
 H          0.6869875732       -4.2325726631       -0.3700549290
 O         -0.6520617834       -2.5298270063       -1.5405341092
