  62
        -98.93048905
 C         -1.6331902799       -0.1969259891       -0.8469964598
 C         -2.9482966699       -0.4938128286       -1.2800576801
 C         -4.0497335098        0.2354142108       -0.6300462092
 C         -3.7664203898        1.1174637798        0.3463776716
 C         -4.6655354097        2.0177813490        1.1680326626
 C         -6.1774110197        1.8073845090        1.1850274025
 C         -6.6374838797        0.5172012783        1.8632866112
 H         -7.7170894397        0.4252138785        1.7255036412
 H         -6.4454036996        0.6010550473        2.9359714913
 C         -5.9640344697       -0.7628416812        1.3746805099
 H         -6.3789790497       -1.5977841018        1.9459655491
 H         -4.8952515997       -0.7231611414        1.5950775998
 C         -6.1530326698       -1.0761749197       -0.1081672504
 H         -7.2176818798       -1.0853436294       -0.3499563504
 H         -5.7616778199       -2.0818236595       -0.2846192615
 C         -5.4360726499       -0.1246503287       -1.0813467195
 H         -6.0249238299        0.7707481915       -1.2652295986
 H         -5.3221084700       -0.6440951878       -2.0372987800
 H         -6.5784269298        1.8720952800        0.1778577226
 H         -6.6013780896        2.6434562485        1.7479751433
 H         -4.4624814797        3.0366494093        0.8204569236
 H         -4.2851338696        1.9613933380        2.1928635825
 O         -2.4829499097        1.3709675894        0.7313219618
 C         -1.3876637198        0.7376198899        0.1583798611
 O         -0.2980567197        1.0971319094        0.6355467314
 O         -3.1960751600       -1.3376557277       -2.1840934809
 C         -0.4911244899       -0.9593244884       -1.5084414307
 C          0.3345801501       -1.6408200595       -0.4488065714
 C         -0.1540049499       -2.8513834900        0.0458643874
 C          0.4978024902       -3.5308484110        1.0553431067
 C          1.6782484802       -3.0353405216        1.5816853671
 C          2.1746628302       -1.8321284811        1.1014144883
 C          1.4968109802       -1.1343993601        0.1099513090
 H          1.8902112602       -0.1811103598       -0.1891217501
 N          3.3682733203       -1.2882268916        1.6020206087
 S          4.4715898302       -0.6609350405        0.5102110493
 O          4.3949961801       -1.3438645793       -0.7611106514
 O          5.7472471603       -0.7398203112        1.1923216891
 C          4.0379852402        1.0532662997        0.3166452510
 C          4.1546388902        1.6349867809       -0.9299124784
 C          3.8643758102        2.9826337911       -1.0702295370
 C          3.4661526603        3.7204905200        0.0331475937
 C          3.3562116603        3.1209933787        1.2785909731
 C          3.6480289703        1.7750686986        1.4267367018
 H          3.5671703904        1.2768777776        2.3783754513
 H          3.0397080804        3.6968577079        2.1333413337
 H          3.2361922403        4.7685008701       -0.0782449352
 H          3.9446669501        3.4480208520       -2.0393709266
 H          4.4533846901        1.0223136717       -1.7652351190
 H          3.8237381503       -1.8431306823        2.3120119381
 H          2.2045410103       -3.5697064823        2.3583353865
 H          0.0944295502       -4.4613102814        1.4257694158
 H         -1.0695685399       -3.2505710895       -0.3691042529
 H         -1.0010937900       -1.7623827378       -2.0643530015
 C          0.1803649600       -0.1067323174       -2.5772924599
 C          1.0166039501        1.1094641424       -2.3204987187
 C          1.6429699200       -0.1219538171       -2.9055090600
 H          1.9194003199       -0.0964203460       -3.9497645500
 H          2.3111138900       -0.7132714177       -2.2981954906
 H          0.8688204300        1.9617294130       -2.9688216679
 H          1.2188395101        1.3862339913       -1.2985981885
 H         -0.4875573000       -0.0231528265       -3.4319606097
