  62
        -98.94549111
 C         -1.7328396984       -1.4443083438        0.2134823039
 C         -1.5215636124       -0.1295205605       -0.2693644395
 C         -2.5188394175        0.8653638390        0.1472777841
 C         -3.5286034436        0.5059833355        0.9598804099
 C         -4.6065135741        1.4133106172        1.4881281530
 C         -5.7816001417        1.6162676282        0.5217840153
 C         -5.4814897011        2.4976397090       -0.6913356611
 H         -6.4390080080        2.7331497020       -1.1603063065
 H         -5.0439488221        3.4383705727       -0.3558542218
 C         -4.5670229788        1.8452498930       -1.7375659990
 H         -4.5389515118        0.7654827006       -1.5737353912
 H         -4.9830903633        2.0060160824       -2.7348112961
 C         -3.1354150003        2.3812729727       -1.7511149218
 H         -3.1424922662        3.4335148686       -2.0438346580
 H         -2.5701423664        1.8255760512       -2.5034516651
 C         -2.3981271113        2.2505623703       -0.4117889991
 H         -1.3364776725        2.4398613837       -0.5837975793
 H         -2.7790912485        2.9827019364        0.2995519877
 H         -6.1298860434        0.6373081748        0.1842166895
 H         -6.5929044365        2.0792854596        1.0883004932
 H         -4.9873042345        0.9459355695        2.3987861110
 H         -4.1768739471        2.3810626177        1.7479115120
 O         -3.6771473474       -0.7629327933        1.4265650333
 C         -2.7958662465       -1.7655049538        1.0592428466
 O         -3.0572856888       -2.8837150498        1.5474654955
 H          1.4821417720       -1.6990927558       -1.4862698816
 C          1.6202597702       -1.7524299258       -0.4184722126
 C          0.5898123237       -2.1990533182        0.3918394045
 C          0.7936789590       -2.2401388706        1.7685785303
 C          2.0003658406       -1.8485439756        2.3162253092
 C          3.0248449130       -1.3924803975        1.5041779182
 C          2.8256937751       -1.3356616017        0.1318366773
 N          3.8513675223       -0.8560082025       -0.7048540944
 S          4.5517654614        0.6177610090       -0.3315880411
 O          5.2221459666        1.0307660760       -1.5440041502
 O          5.3887542272        0.4624201235        0.8322292264
 C          3.2027957399        1.7249432429        0.0325841516
 C          2.5313054430        2.3084385152       -1.0227052846
 C          1.4679830987        3.1538940366       -0.7558599315
 C          1.0885590906        3.3905468308        0.5562274465
 C          1.7675822698        2.7903965652        1.6046659986
 C          2.8374111796        1.9497751855        1.3440027082
 H          3.3976057361        1.4755499323        2.1328436030
 H          1.4664130885        2.9739470944        2.6237184088
 H          0.2585153920        4.0478550412        0.7638402077
 H          0.9363538405        3.6196748472       -1.5703542680
 H          2.8589561378        2.1056641532       -2.0296285849
 H          3.6032493864       -0.8757537088       -1.6838671951
 H          3.9703519550       -1.0755033903        1.9133413792
 H          2.1457369708       -1.8934783035        3.3850378020
 H         -0.0147095166       -2.5766543559        2.4037038444
 C         -0.7699801489       -2.5629248280       -0.1503023778
 H         -1.1255426968       -3.4563611328        0.3802527452
 C         -0.7919192577       -2.8381555181       -1.6389575636
 C         -0.2350008872       -4.1274894784       -2.1612810666
 C         -1.7146526776       -3.8900341839       -2.1732567981
 H         -2.2017826629       -3.7151331514       -3.1209473776
 H         -2.3264150370       -4.4252759691       -1.4616704746
 H          0.2936160913       -4.1204348410       -3.1024571676
 H          0.1604423989       -4.8270716349       -1.4404760467
 H         -0.6617289485       -1.9458170772       -2.2395113916
 O         -0.5605801012        0.2039579415       -1.0093672509
