  62
        -98.94273929
 C         -1.4399801811       -1.1517180446        0.1010297008
 C         -2.6681682422       -1.1755453360        0.8143739972
 C         -3.4153207121        0.0854168677        0.8678487906
 C         -2.8901469637        1.1932415133        0.3150360103
 C         -3.5111134336        2.5636524412        0.3139618806
 C         -4.5356692849        2.7822070638       -0.8078726824
 C         -5.8682774942        2.0550579164       -0.6236862227
 H         -6.2704619795        2.2796017886        0.3647232936
 H         -6.5627789077        2.4673094089       -1.3585069024
 C         -5.7924653956        0.5339788847       -0.8170627859
 H         -4.8693837429        0.2792041023       -1.3430804927
 H         -6.6206242303        0.2052067731       -1.4490799652
 C         -5.8633733806       -0.2743102567        0.4787648552
 H         -5.7649997023       -1.3338581175        0.2280538068
 H         -6.8394873656       -0.1303337635        0.9473640704
 C         -4.7737717889        0.0750792565        1.5009659234
 H         -4.9867159956        1.0393212296        1.9620456807
 H         -4.7735986618       -0.6927060429        2.2785665087
 H         -4.7371626633        3.8545893001       -0.8613206735
 H         -4.0853804317        2.4813073942       -1.7566719106
 H         -3.9803603251        2.7554370602        1.2792182345
 H         -2.6947109989        3.2751249271        0.1750242900
 O         -1.6873109993        1.1917571630       -0.3119231839
 C         -0.9438598861        0.0263119876       -0.4644681145
 O          0.1039171702        0.1964184223       -1.1123128286
 O         -3.1189249607       -2.2053233011        1.3829474468
 C         -0.6475249323       -2.4487740772        0.0531286511
 C          0.7472288565       -2.1808117003        0.5528185046
 C          1.0056204772       -2.1822286621        1.9195547225
 C          2.2564656888       -1.8421576493        2.4014876065
 C          3.2611383017       -1.4559291265        1.5316323797
 C          3.0034108039       -1.4300666698        0.1673999429
 C          1.7669251189       -1.8304197526       -0.3185084283
 H          1.5808601413       -1.8178578628       -1.3806948590
 N          3.9977161572       -0.9710565973       -0.7213525052
 S          4.6208317162        0.5562360362       -0.4171418077
 O          5.2317693250        0.9701671652       -1.6608900384
 O          5.5051124442        0.4773007611        0.7204417529
 C          3.2304462672        1.6035571693       -0.0299015727
 C          2.8515483375        1.7713896092        1.2866082651
 C          1.7366321496        2.5435063489        1.5673352174
 C          1.0283392605        3.1362379189        0.5341478121
 C          1.4277976948        2.9661533061       -0.7811914468
 C          2.5353592598        2.1867871191       -1.0687876523
 H          2.8719272110        2.0267486455       -2.0804054622
 H          0.8699811220        3.4222453145       -1.5830893855
 H          0.1555848264        3.7307841507        0.7559834892
 H          1.4201867732        2.6753768900        2.5900679405
 H          3.4324527287        1.3042386363        2.0645226824
 H          3.7005156791       -1.0163050206       -1.6862904663
 H          4.2340686869       -1.1577930298        1.8878762773
 H          2.4481210606       -1.8627623173        3.4636322647
 H          0.2098483952       -2.4443020735        2.6028492812
 H         -1.1553466358       -3.1034699474        0.7789738263
 C         -0.6723415873       -3.1805944413       -1.2802788895
 C         -1.9553049584       -3.3047893999       -2.0456995866
 C         -0.8252502570       -2.4951683576       -2.6033260374
 H         -0.2788172772       -2.8940973400       -3.4460035156
 H         -0.9155782244       -1.4208009399       -2.6145146783
 H         -2.1947434251       -4.2497203907       -2.5095722139
 H         -2.8143449877       -2.7782206113       -1.6555587678
 H         -0.0324085967       -4.0580859087       -1.2640076267
