  62
        -98.93788121
 C         -1.9997590955       -1.1634579412       -0.1695058728
 C         -2.4659716976       -0.0995472886       -0.9750239653
 C         -3.8984244669        0.2311480541       -0.8529884715
 C         -4.6669589786       -0.4841065474       -0.0134657465
 C         -6.1242861977       -0.2796610545        0.2955856114
 C         -6.2958637913        0.6131414388        1.5362632529
 C         -6.3159554180        2.1144636178        1.2516677476
 H         -6.3082961855        2.6283184430        2.2157118667
 H         -7.2517175471        2.3721800952        0.7511461750
 C         -5.1505796792        2.6372297105        0.4074731997
 H         -4.2169459949        2.1828172160        0.7446151119
 H         -5.0665977535        3.7117159158        0.5821723333
 C         -5.3377161338        2.3924171938       -1.0973117276
 H         -5.1844890007        3.3292459576       -1.6371722617
 H         -6.3691784418        2.0938888992       -1.2841437127
 C         -4.3812064477        1.3634125616       -1.7178333463
 H         -3.4669817177        1.8688250432       -2.0453433222
 H         -4.8442790677        0.9433904864       -2.6171650204
 H         -5.4843978529        0.3810390125        2.2308142540
 H         -7.2334343383        0.3504772181        2.0304173053
 H         -6.6471600387        0.1331425223       -0.5618634764
 H         -6.5362914418       -1.2662525896        0.5178750488
 O         -4.1755249322       -1.5051078415        0.7416995522
 C         -2.8419837481       -1.8628029459        0.6951469724
 O         -2.5302471048       -2.8009871393        1.4556494667
 H          1.3973150906       -0.1844363503       -1.6136234203
 C          1.2627631810        0.1777483444       -0.6068297320
 C          0.3208180079       -0.4099276672        0.2213811891
 C          0.1682789851        0.0887951799        1.5126406895
 C          0.9334656983        1.1490851227        1.9589690475
 C          1.8703852775        1.7369256026        1.1262749188
 C          2.0270963745        1.2491995016       -0.1627833755
 N          3.0007588096        1.8286982336       -1.0033188842
 S          4.5743678879        1.7438096145       -0.4303876126
 O          4.7718077626        2.7501247857        0.5815330027
 O          5.4209413239        1.8407177073       -1.5981392794
 C          4.6764949521        0.1169836923        0.2947574500
 C          4.6368754806       -0.0268346900        1.6664185624
 C          4.6241692143       -1.3035276932        2.2051554575
 C          4.6437540861       -2.4074639989        1.3672113548
 C          4.6853862608       -2.2462356659       -0.0093935361
 C          4.6980543099       -0.9725558642       -0.5533430777
 H          4.7371566139       -0.8087323794       -1.6182998413
 H          4.7019381573       -3.1071323156       -0.6585352500
 H          4.6264761364       -3.4002012695        1.7888888013
 H          4.5923816703       -1.4327961035        3.2750185123
 H          4.6202272202        0.8573722385        2.2820152950
 H          2.9573408218        1.4887799134       -1.9536000168
 H          2.4823937469        2.5613907329        1.4548622472
 H          0.8011765751        1.5227240591        2.9630550829
 H         -0.5644433543       -0.3709122819        2.1623313317
 C         -0.5377307840       -1.5734994639       -0.2090077855
 H         -0.4291177354       -2.3673694342        0.5431945628
 C         -0.1728091137       -2.1372116225       -1.5659691313
 C          1.0403225605       -3.0064671953       -1.7054287829
 C         -0.3289741918       -3.6069474199       -1.8078583889
 H         -0.6786171998       -3.9351971066       -2.7752758260
 H         -0.6894221396       -4.2099492327       -0.9873013592
 H          1.6162912911       -3.2018402267       -0.8135876352
 H          1.6313904392       -2.9279442356       -2.6054204725
 H         -0.4226834208       -1.4684071828       -2.3815041792
 O         -1.7264349378        0.5499270140       -1.7606537628
