  62
        -98.93701726
 C         -0.7439714958       -1.5914195944       -0.2656510199
 C         -1.7926983034       -1.4100498637        0.6710998358
 C         -2.8856590955       -0.4949858186        0.2977727610
 C         -2.8229275533        0.1374267983       -0.8870655180
 C         -3.8080601302        1.1025724048       -1.4993540811
 C         -4.4162282670        2.1624157627       -0.5668990916
 C         -5.8943187936        1.9222919051       -0.2540114317
 H         -6.3548862710        2.8763079972        0.0119604020
 H         -6.3891594459        1.5638784545       -1.1590160135
 C         -6.1617117325        0.9450935085        0.8895593468
 H         -5.8903900266        1.4146689569        1.8374066685
 H         -7.2372579611        0.7553998077        0.9174465629
 C         -5.4301324204       -0.3948838768        0.7878589781
 H         -5.4417824753       -0.7584327376       -0.2392751056
 H         -5.9807991097       -1.1222200578        1.3881906687
 C         -3.9865094890       -0.3509133449        1.3125328544
 H         -3.8246981510        0.5656019045        1.8861553121
 H         -3.8245922289       -1.1759325449        2.0128948646
 H         -3.8448288633        2.2197058600        0.3581073253
 H         -4.3298110254        3.1305380503       -1.0633065011
 H         -3.2617384446        1.5898214306       -2.3109793822
 H         -4.6063995150        0.5240917183       -1.9714040164
 O         -1.7887326014       -0.0538743720       -1.7539479476
 C         -0.7338360819       -0.9133490374       -1.4833271156
 O          0.1086350440       -0.9628851618       -2.4003679986
 H          2.0017979068       -0.6519253429       -0.9052519636
 C          2.2648597088       -0.9267635263        0.1049361087
 C          1.5177137856       -1.8792239150        0.7859516765
 C          1.8805899933       -2.2136966610        2.0859188956
 C          2.9733152737       -1.6192433246        2.6896501969
 C          3.7190414378       -0.6755737871        2.0084831166
 C          3.3615799049       -0.3276732491        0.7101727385
 N          4.1142851050        0.6249464928        0.0058620081
 S          3.3358229366        1.7737104335       -0.9250265709
 O          2.9765722476        1.2312009319       -2.2082924909
 O          4.2626691039        2.8875642486       -0.9532132683
 C          1.8898833959        2.2315327661        0.0128203873
 C          0.6326018682        2.0696587381       -0.5285258855
 C         -0.4712415914        2.4451479562        0.2211849738
 C         -0.2996289980        2.9626637115        1.4947651222
 C          0.9718140097        3.1195677557        2.0253946234
 C          2.0785621985        2.7546753687        1.2776023630
 H          3.0814548531        2.8801528399        1.6519035251
 H          1.1015122544        3.5248540806        3.0158466700
 H         -1.1629218828        3.2482985737        2.0749321248
 H         -1.4589062041        2.3241106739       -0.1934838709
 H          0.5371409379        1.6474457005       -1.5171393121
 H          4.8700166400        1.0356838478        0.5351087832
 H          4.5756698361       -0.2109834794        2.4722314402
 H          3.2448228732       -1.8898846248        3.6983502604
 H          1.2910751050       -2.9401222745        2.6251294301
 C          0.3467381220       -2.5710397835        0.1284033705
 H         -0.1165145805       -3.2196365068        0.8850726136
 C          0.8335390946       -3.4454915344       -1.0104732227
 C          1.4517812677       -4.7724269298       -0.6910875709
 C          0.0982963286       -4.7103658220       -1.3318623421
 H         -0.0000695391       -4.9977281802       -2.3679411696
 H         -0.7635693258       -4.9547096264       -0.7279405186
 H          2.2881459148       -5.1057987855       -1.2859867457
 H          1.5066584402       -5.0628422592        0.3471268250
 H          1.2443395492       -2.8853299461       -1.8403948758
 O         -1.8235834229       -2.0081677759        1.7799505418
