  62
        -98.93894093
 C         -2.0104452913       -1.0330973996       -0.2517086387
 C         -2.4885718063       -0.3401584529        0.8898210383
 C         -2.7863436026        1.0835010439        0.7165374855
 C         -2.5398575487        1.6709413916       -0.4677781393
 C         -2.7382309386        3.1270458477       -0.7928403368
 C         -4.1754516932        3.4919479963       -1.1897881137
 C         -5.1869867466        3.4928347894       -0.0428594108
 H         -4.8058657486        4.1060261831        0.7741514771
 H         -6.0937502636        3.9725217905       -0.4164755237
 C         -5.5475614963        2.0966831761        0.4834633859
 H         -5.2433919691        1.3431936559       -0.2466716053
 H         -6.6312720986        2.0174904506        0.5940144475
 C         -4.9271391662        1.7497020267        1.8368252249
 H         -5.2171263104        0.7282013047        2.0951954215
 H         -5.3238894276        2.4177217081        2.6043618098
 C         -3.3948810754        1.8271382283        1.8670760923
 H         -3.0687259081        2.8671726772        1.8610152832
 H         -3.0428799451        1.3554579170        2.7877860747
 H         -4.1479220901        4.4942912091       -1.6233374186
 H         -4.5069496484        2.8015984820       -1.9688617021
 H         -2.4263815973        3.7341499828        0.0577895702
 H         -2.0783936352        3.3472201463       -1.6351455660
 O         -2.0514113561        0.9845840957       -1.5328899529
 C         -1.7794986091       -0.3795049112       -1.4629449347
 O         -1.3679508072       -0.8551859532       -2.5371092140
 O         -2.6639790987       -0.8982178635        2.0074800913
 C         -1.6668145041       -2.4972610311       -0.0404024236
 C         -0.3005003543       -2.6001979443        0.5915647910
 C         -0.0682785503       -3.4478241834        1.6682925657
 C          1.1799726640       -3.5032327103        2.2628711141
 C          2.2109084390       -2.7010145736        1.8092962909
 C          1.9891500867       -1.8521389622        0.7300869668
 C          0.7451389677       -1.8198701180        0.1189579238
 H          0.5898191554       -1.1558823745       -0.7192138804
 N          3.0126211704       -1.0276727024        0.2362482770
 S          2.5826876148        0.5049634851       -0.3360582378
 O          1.5587108804        1.0808311717        0.5067872819
 O          2.2891377198        0.4082772966       -1.7434697086
 C          4.1278489078        1.3678959644       -0.1099785022
 C          5.1125678455        1.2315937460       -1.0704025195
 C          6.3287459398        1.8675389140       -0.8776242808
 C          6.5394456918        2.6237709353        0.2659441821
 C          5.5411895250        2.7530861951        1.2198839208
 C          4.3228722658        2.1184773328        1.0339734570
 H          3.5142343220        2.1955414818        1.7431722588
 H          5.7062599894        3.3440565937        2.1062683594
 H          7.4867082352        3.1177368649        0.4135205813
 H          7.1058007285        1.7714389684       -1.6185484516
 H          4.8976716326        0.6411998560       -1.9458764707
 H          3.8180126569       -0.9885728035        0.8462568514
 H          3.1789244426       -2.7262954402        2.2860039963
 H          1.3466648795       -4.1631802201        3.1004956076
 H         -0.8804764318       -4.0468154167        2.0529843059
 H         -2.3953879918       -2.8607423895        0.7033768966
 C         -1.8116840718       -3.3655134973       -1.2796474875
 C         -0.6438546874       -3.8493515847       -2.0800466448
 C         -1.4187150106       -4.8129282787       -1.2351872279
 H         -2.0545711936       -5.5342358141       -1.7253704650
 H         -0.9475236305       -5.1742126560       -0.3338545929
 H         -0.7544928087       -3.8819765731       -3.1529897704
 H          0.3452563206       -3.5606992276       -1.7590325680
 H         -2.7064465416       -3.1191301015       -1.8417686845
