  62
        -98.93892230
 C         -1.8211151570       -0.9621644368       -0.1954889990
 C         -2.9715892651       -1.0724713521        0.6264958747
 C         -4.2132116870       -0.4303878938        0.1559596634
 C         -4.1947611628        0.2190778504       -1.0224851903
 C         -5.3107325892        0.9729582704       -1.6959539971
 C         -5.5785541612        2.3413060783       -1.0503431166
 C         -5.6213453782        2.3327790761        0.4752700290
 H         -4.6689040936        1.9620891584        0.8586785827
 H         -5.7231457203        3.3686445238        0.8097449783
 C         -6.7649846163        1.5286792989        1.0894084327
 H         -7.7158169033        1.9154251796        0.7161270450
 H         -6.7377956645        1.7009010019        2.1684313244
 C         -6.7250358192        0.0172485883        0.8508738217
 H         -7.0769693121       -0.2346340902       -0.1460136483
 H         -7.4283280919       -0.4408900262        1.5523584474
 C         -5.3681261383       -0.6302698860        1.1073018246
 H         -5.0050123204       -0.3257711836        2.0955777159
 H         -5.5063474712       -1.7160314062        1.1751225832
 H         -4.7813859452        3.0228985259       -1.3576403460
 H         -6.5213609125        2.7277883437       -1.4413159038
 H         -5.0002330639        1.1323021722       -2.7310551327
 H         -6.2138802491        0.3701115175       -1.7108133201
 O         -3.0664216349        0.3020815380       -1.7810099889
 C         -1.8653826214       -0.2699642958       -1.4046273623
 O         -0.9487118010       -0.0837041772       -2.2319280435
 H          0.7347455029        0.4016184058       -0.9074325825
 C          1.0017456780        0.3219578538        0.1358496674
 C          0.4086983972       -0.6603984771        0.9164883207
 C          0.7538861244       -0.7383272476        2.2604322766
 C          1.6691017469        0.1448413224        2.8075342156
 C          2.2591267118        1.1214954757        2.0257598298
 C          1.9139003238        1.2110809152        0.6834926148
 N          2.5249115105        2.1921456389       -0.1269406072
 S          4.1959828078        2.0780473863       -0.2249846045
 O          4.7790396328        2.6435380629        0.9658870115
 O          4.5621348334        2.7109777546       -1.4721327778
 C          4.5131364222        0.3239228813       -0.2844669313
 C          4.9986863879       -0.3256057416        0.8319412786
 C          5.1601426825       -1.7010559272        0.7878687975
 C          4.8302638859       -2.3989682006       -0.3632151529
 C          4.3452548224       -1.7311223998       -1.4772732563
 C          4.1798330005       -0.3566027695       -1.4386053340
 H          3.8070029082        0.1953965408       -2.2869481807
 H          4.0901485436       -2.2742413796       -2.3733621093
 H          4.9525200305       -3.4702793021       -0.3934932469
 H          5.5373920854       -2.2238876496        1.6517559674
 H          5.2427172160        0.2555986872        1.7058039598
 H          2.1286560469        2.2272865205       -1.0559953192
 H          2.9808354934        1.8135267812        2.4289400089
 H          1.9266654491        0.0713211144        3.8529825625
 H          0.2911296125       -1.4926399971        2.8797915618
 C         -0.5590676718       -1.6445347794        0.3047044386
 H         -0.8991585572       -2.3178972043        1.1025997268
 C          0.1360521757       -2.4721596585       -0.7600371819
 C          1.0810033179       -3.5540947730       -0.3352085536
 C         -0.2443408561       -3.9099692113       -0.9377676270
 H         -0.2681888632       -4.3156779789       -1.9380650408
 H         -1.0111834892       -4.3077231748       -0.2890126831
 H          1.2147177728       -3.7118930128        0.7239513301
 H          1.9727400623       -3.7150582596       -0.9201385829
 H          0.3801325005       -1.9092945690       -1.6513144601
 O         -2.9682823570       -1.6938834820        1.7230867199
