  62
        -98.93692330
 C         -2.3148560764       -0.9441889593        0.3594583348
 C         -2.5081522860        0.1203047272       -0.5510734211
 C         -3.5144103564        1.1327065454       -0.1751597381
 C         -4.1574526007        1.0210215903        0.9992036784
 C         -5.2363632799        1.9139173085        1.5460782635
 C         -6.6281162916        1.3625850166        1.1928949653
 C         -7.1720133996        1.8083823697       -0.1639168512
 H         -7.4409176140        2.8655786405       -0.1128577839
 H         -8.0902194845        1.2455589253       -0.3470163217
 C         -6.2247918960        1.6021654816       -1.3488244207
 H         -6.8254065851        1.5981942069       -2.2605801367
 H         -5.7474278174        0.6234648604       -1.2730540939
 C         -5.1552169317        2.6985244292       -1.4640986830
 H         -5.4232377430        3.5274301972       -0.8092555524
 H         -5.1542215835        3.0963289184       -2.4811726936
 C         -3.7174862147        2.2480155842       -1.1649936522
 H         -3.1324470462        3.1146911978       -0.8389904146
 H         -3.2513542091        1.8883101217       -2.0877272226
 H         -7.3360371044        1.6793956588        1.9613799394
 H         -6.5744353759        0.2714356942        1.2281915724
 H         -5.1248588922        1.9055602715        2.6323129316
 H         -5.1137484537        2.9319814961        1.1889031938
 O         -3.9268928851       -0.0072161524        1.8599426798
 C         -3.0255076978       -1.0084840321        1.5633943511
 O         -2.9427188822       -1.8956287248        2.4357738678
 H          0.1571713365       -0.1574225543       -1.0265824827
 C          0.7066428339       -0.6934889999       -0.2668285403
 C          0.0773293636       -1.7130626891        0.4326736000
 C          0.7975621872       -2.3912965400        1.4090109164
 C          2.1125885280       -2.0531245663        1.6760584757
 C          2.7337127067       -1.0305794317        0.9814267607
 C          2.0222884535       -0.3453837882        0.0052767251
 N          2.6294188232        0.7152554975       -0.6883805793
 S          4.1496944547        0.4756911170       -1.3547506412
 O          4.2558452521        1.4483929126       -2.4201754574
 O          4.3576934136       -0.9055436035       -1.7241750782
 C          5.2662953944        0.9303482788       -0.0439967422
 C          5.1078913228        2.1690093106        0.5460584202
 C          5.9753557648        2.5428479897        1.5598812639
 C          6.9830889442        1.6785195264        1.9616262374
 C          7.1314248624        0.4399943655        1.3565313103
 C          6.2660063159        0.0593560728        0.3425985193
 H          6.3388417588       -0.8959833641       -0.1522913670
 H          7.9155840362       -0.2301990211        1.6701828577
 H          7.6565616646        1.9723518946        2.7512031747
 H          5.8627679805        3.5049946352        2.0332211912
 H          4.3137709245        2.8114336771        0.2034663816
 H          2.0123224665        1.1642962670       -1.3500837336
 H          3.7571175641       -0.7621992167        1.1869691287
 H          2.6599363030       -2.5892112848        2.4362922521
 H          0.3158040401       -3.1816238322        1.9661666156
 C         -1.3501261847       -2.0959054842        0.1199720619
 H         -1.6474615610       -2.8773965431        0.8319960695
 C         -1.4497455931       -2.6682452527       -1.2818424368
 C         -1.0027034990       -4.0767318650       -1.5251725537
 C         -2.4613876915       -3.7346181977       -1.5687373114
 H         -2.9635987843       -3.7247722478       -2.5244753375
 H         -3.0864553806       -4.0626192040       -0.7506278250
 H         -0.6398298440       -4.6400232068       -0.6787858244
 H         -0.4979861300       -4.3033769473       -2.4518830722
 H         -1.2624281053       -1.9392917326       -2.0593091211
 O         -1.8856763667        0.2472107595       -1.6416099951
