  62
        -98.94145385
 C          1.6373254496        1.1679355104        0.1669942298
 C          1.6794598496       -0.1859443396        0.5880103199
 C          2.7750654196       -1.0052788396        0.0563211598
 C          3.6527181795       -0.4470894197       -0.7971875502
 C          4.8462651295       -1.1448860397       -1.3807998903
 C          6.0895559796       -0.9474367396       -0.5025771404
 C          5.8522013196       -1.2453648995        0.9778988897
 H          6.8038947397       -1.1054575195        1.4951332696
 H          5.1556626097       -0.5076824495        1.3831751197
 C          5.3174116797       -2.6557211195        1.2632638398
 H          5.4966178096       -3.3014192596        0.4028493298
 H          5.8715200897       -3.0765858295        2.1049316098
 C          3.8347378997       -2.7078735895        1.6366191199
 H          3.6335665597       -1.9925374894        2.4382741099
 H          3.6177761597       -3.7054238395        2.0280964300
 C          2.8463061496       -2.4413889996        0.4941666799
 H          3.0797521296       -3.0913741396       -0.3518462100
 H          1.8467103896       -2.6938124696        0.8609448000
 H          6.8860462895       -1.5903004897       -0.8817012204
 H          6.4178364195        0.0904630704       -0.5946222204
 H          4.6263724495       -2.2056943197       -1.4834702702
 H          5.0406258794       -0.7249661698       -2.3690485503
 O          3.5728810995        0.8463464203       -1.1932596503
 C          2.5680730195        1.6907459803       -0.7322385503
 O          2.6332381395        2.8417830803       -1.1982815804
 O          0.8343695797       -0.6848839995        1.3797731399
 C          0.4989959196        2.0079168004        0.7193796098
 C         -0.7040447004        1.8839744004       -0.1802492601
 C         -0.6230296805        2.1864089603       -1.5370106202
 C         -1.7315264906        2.0475336202       -2.3510573601
 C         -2.9306043405        1.5834279202       -1.8369917300
 C         -3.0182307805        1.2674273303       -0.4870627300
 C         -1.9098287304        1.4325007604        0.3337768800
 H         -1.9938595303        1.1802518505        1.3799726700
 N         -4.2194414804        0.7889239704        0.0652444902
 S         -4.1886578204       -0.6089230596        0.9914240202
 O         -5.5779038903       -0.9977932696        1.0991510504
 O         -3.5018061603       -0.3609350795        2.2315498602
 C         -3.3120060504       -1.7872354196       -0.0203309697
 C         -4.0515436405       -2.5292940197       -0.9222951296
 C         -3.3965371305       -3.4001108298       -1.7765744896
 C         -2.0143845305       -3.5046126298       -1.7252780397
 C         -1.2881911605       -2.7514394697       -0.8168696198
 C         -1.9369676304       -1.8834107796        0.0484900002
 H         -1.3787829004       -1.2995093296        0.7637843401
 H         -0.2125945105       -2.8232201797       -0.7700776998
 H         -1.4998024005       -4.1772380498       -2.3933438097
 H         -3.9614983706       -3.9902932198       -2.4800047695
 H         -5.1242321005       -2.4208918797       -0.9234403196
 H         -4.9835248405        0.7463465803       -0.5945897598
 H         -3.7922827806        1.4658426902       -2.4763883599
 H         -1.6593370706        2.2929920201       -3.3998107701
 H          0.3170791095        2.5321646802       -1.9403838902
 H          0.2369856097        1.5319088105        1.6784279198
 C          0.8856833596        3.4476867204        1.0238432897
 C          0.3225479996        4.6317419304        0.3024226296
 C         -0.1005780603        4.3466085205        1.7100656297
 H          0.2478443497        4.9928399905        2.5014820596
 H         -1.0971187603        3.9586312605        1.8635073497
 H          0.9864232396        5.4620395604        0.1161853095
 H         -0.3917193005        4.4614321903       -0.4872208503
 H          1.9198949897        3.5316103305        1.3414075796
