  62
        -98.93876440
 C         -1.1117580590       -1.7113631805        0.3675801916
 C         -1.4376773198       -0.5013823201        1.0284830906
 C         -2.7436628001        0.1111832289        0.7175957600
 C         -3.5320905796       -0.4824020223       -0.1975166296
 C         -4.8715708098       -0.0309681035       -0.7176506902
 C         -4.7607405004        1.1495816958       -1.6938193211
 C         -3.8493379111        2.2800030367       -1.2248263619
 H         -2.8429326009        1.8866020474       -1.0727944814
 H         -3.7963226114        3.0168858161       -2.0304599125
 C         -4.3133426017        2.9989166974        0.0400021375
 H         -3.6643456522        3.8665451179        0.1812934769
 H         -5.3291571619        3.3707103967       -0.1107036029
 C         -4.2812431713        2.1731005885        1.3291332682
 H         -5.1533364410        1.5291353180        1.4085965286
 H         -4.3394257718        2.8740237991        2.1668930276
 C         -3.0103975509        1.3539873494        1.5316269790
 H         -2.9699777208        1.0285807702        2.5783282292
 H         -2.1345985613        1.9970475998        1.3973557686
 H         -5.7642026206        1.5377548651       -1.8774789015
 H         -4.3670573801        0.7709204153       -2.6402245607
 H         -5.3029642493       -0.8824428042       -1.2486920695
 H         -5.5332485001        0.2132479568        0.1079532696
 O         -3.1609193389       -1.6272655426       -0.8363494087
 C         -1.9672541286       -2.2759228917       -0.5782243380
 O         -1.8099347579       -3.3160767922       -1.2461112472
 O         -0.6695201202        0.0518546110        1.8615483803
 C          0.2202766313       -2.3540155294        0.7173241023
 C          1.2388230713       -2.0209369197       -0.3451186579
 C          1.2678792418       -2.6756691206       -1.5721992873
 C          2.2020481817       -2.3220777509       -2.5285129775
 C          3.1170793011       -1.3125976101       -2.2863112382
 C          3.0927311406       -0.6496592192       -1.0642250487
 C          2.1572178207       -1.0081802790       -0.1037570686
 H          2.1464820202       -0.4901103982        0.8437080910
 N          4.0155557999        0.3659915716       -0.7913645094
 S          3.7547833191        1.5403968023        0.3548289496
 O          4.7220696186        2.5674031826        0.0261623289
 O          3.8694344793        0.9834133334        1.6796491601
 C          2.1169555888        2.2013831212        0.0982743089
 C          1.4539535884        2.7194758217        1.1916111984
 C          0.2284899480        3.3372143308        1.0059030778
 C         -0.3159328319        3.4177167795       -0.2657872624
 C          0.3542341086        2.8789021190       -1.3523581419
 C          1.5871784089        2.2724030599       -1.1742994312
 H          2.1263487592        1.8551797095       -2.0092699708
 H         -0.0786277514        2.9329002280       -2.3386517319
 H         -1.2693993521        3.9004230988       -0.4129599629
 H         -0.2942034323        3.7500823712        1.8542435574
 H          1.9040075883        2.6230515727        2.1665563985
 H          4.5775287199        0.6820916113       -1.5665321696
 H          3.8467711610       -1.0400189703       -3.0332820783
 H          2.2159349221       -2.8366864916       -3.4773368571
 H          0.5386507922       -3.4426866512       -1.7783458568
 H          0.5413191409       -1.8612226685        1.6454614519
 C          0.1224622322       -3.8435530593        0.9758069035
 C          1.2349541025       -4.5210508480        1.7163131941
 C         -0.0972840377       -4.3297061483        2.3754604438
 H         -0.7276916673       -5.1929801985        2.5275698044
 H         -0.1773184082       -3.5879924677        3.1570663732
 H          1.5226946631       -5.5170469481        1.4168524050
 H          2.0582252921       -3.9066730973        2.0498620737
 H         -0.3637323174       -4.3938343802        0.1814076838
