  62
        -98.93715016
 C         -0.8361224757       -1.6445770153        0.6263827475
 C         -1.4948940743       -1.2278022692       -0.5558755532
 C         -2.4451696389       -0.0981882196       -0.4215909099
 C         -2.6934135878        0.4099610854        0.7984518360
 C         -3.6436625367        1.5158807879        1.1724210477
 C         -5.1155231994        1.0705690130        1.1437939811
 C         -5.5058598293        0.2032216506       -0.0502932870
 H         -4.8636943516       -0.6790117306       -0.0791696636
 H         -6.5290800628       -0.1455175588        0.1124189534
 C         -5.4628237405        0.9034681982       -1.4062922985
 H         -5.8257945022        0.1919142165       -2.1523934113
 H         -6.1510552176        1.7517356972       -1.3940039520
 C         -4.0885706634        1.4033882526       -1.8563588241
 H         -3.8112139758        2.3137169237       -1.3311951728
 H         -4.1675817475        1.6711888546       -2.9143523880
 C         -2.9666376460        0.3743109507       -1.7561340069
 H         -2.0862383332        0.7642662201       -2.2859015598
 H         -3.2577254751       -0.5289602480       -2.3047406998
 H         -5.7460276440        1.9607236242        1.1707362248
 H         -5.3092026824        0.4914853439        2.0498625778
 H         -3.3926262514        1.8155424820        2.1922572970
 H         -3.4826720148        2.3750937687        0.5274378203
 O         -2.0989670957       -0.0839433040        1.9231649497
 C         -1.1364120778       -1.0728865267        1.8640722878
 O         -0.6338277334       -1.3640697874        2.9680420565
 O         -1.3197080092       -1.7525267780       -1.6847052670
 C          0.2767449928       -2.6785647071        0.6485661449
 C          1.6112620143       -2.0041252616        0.4441738265
 C          2.7067435481       -2.3364299806        1.2331595074
 C          3.9269669256       -1.7124828741        1.0435978366
 C          4.0715870750       -0.7287188320        0.0819346491
 C          2.9803573176       -0.3815479109       -0.7058431179
 C          1.7657923945       -1.0283248327       -0.5309009296
 H          0.9373477184       -0.7590657094       -1.1669803527
 N          3.0802291712        0.6318677346       -1.6776753086
 S          1.9387041430        1.8586468663       -1.6403521296
 O          0.6777016832        1.3995374550       -2.1590449568
 O          2.5616775793        2.9504036507       -2.3578531389
 C          1.7996881747        2.2640496745        0.0900276406
 C          0.7505332527        1.7527731453        0.8249558513
 C          0.7015631036        2.0002680431        2.1877022684
 C          1.6987192167        2.7539869174        2.7869326989
 C          2.7421243635        3.2704119078        2.0328961954
 C          2.7993738892        3.0192833212        0.6719908735
 H          3.5889832246        3.4075285240        0.0491858189
 H          3.5113024234        3.8612036750        2.5035552682
 H          1.6582588573        2.9383632092        3.8488166385
 H         -0.1053666075        1.5861121665        2.7722477009
 H         -0.0086379670        1.1713324788        0.3247988897
 H          4.0067527438        1.0259493457       -1.7648069457
 H          5.0187548868       -0.2309165732       -0.0585972265
 H          4.7702572086       -1.9842248561        1.6595626171
 H          2.5924694913       -3.0805017775        2.0075229795
 H          0.2712725528       -3.0918865772        1.6700360032
 C          0.0538103168       -3.8406961504       -0.3088840291
 C          0.8146058886       -4.0110955914       -1.5855504835
 C          1.0841736593       -4.9246023416       -0.4300431758
 H          0.7499602784       -5.9491923950       -0.4909245982
 H          2.0134927150       -4.7921713345        0.1027145854
 H          0.2764855843       -4.3900744099       -2.4408949177
 H          1.5554607717       -3.2686371608       -1.8391231403
 H         -0.9852239170       -4.1532137006       -0.3256147973
