  62
        -98.94608661
 C          0.9753980815        1.6444879672        0.6217031836
 C          1.7483291926        1.5435606375       -0.5598505757
 C          2.8716412912        0.5969009059       -0.5094209557
 C          3.0832932290       -0.1177076257        0.6107830837
 C          4.1932912074       -1.1115940375        0.7937655837
 C          3.7622279259       -2.5296901264        0.3972907015
 C          3.0540766673       -2.6059281138       -0.9546806893
 H          2.8149119160       -3.6549067032       -1.1386387708
 H          2.1055147779       -2.0672080626       -0.8924285397
 C          3.8750362793       -2.0597091235       -2.1311257178
 H          4.9297387291       -2.0123298353       -1.8572050066
 H          3.7889051592       -2.7536277024       -2.9697597787
 C          3.4244115817       -0.6897401223       -2.6409798766
 H          2.3466794119       -0.7010402006       -2.8230499378
 H          3.9161429630       -0.5055843118       -3.5999895159
 C          3.7456483724        0.5001120462       -1.7279320648
 H          4.8006153821        0.4747128544       -1.4468347337
 H          3.5641972643        1.4157407971       -2.2984207539
 H          4.6482660350       -3.1669078176        0.3831262817
 H          3.0814106546       -2.9063205564        1.1618493403
 H          5.0470775885       -0.7993170480        0.1950911950
 H          4.4822882563       -1.1099460092        1.8462772940
 O          2.2851642580       -0.0318302359        1.7065398529
 C          1.2152346091        0.8477325955        1.7402550629
 O          0.5639776480        0.8258741351        2.8052920021
 H         -1.2833879001        0.2599195507        0.3050334095
 C         -1.6813277484        0.9816177521       -0.3931726301
 C         -1.2108504566        2.2887657614       -0.3576982580
 C         -1.7289478043        3.2069333032       -1.2607730375
 C         -2.6881293339        2.8164590757       -2.1794828190
 C         -3.1695193957        1.5208594463       -2.1958702711
 C         -2.6649088779        0.5957964546       -1.2878724416
 N         -3.1328765598       -0.7265959848       -1.2683105737
 S         -3.3706542225       -1.5146361262        0.1918404851
 O         -4.4296416035       -2.4634614144       -0.0836464972
 O         -3.6158566423       -0.5811260772        1.2647446459
 C         -1.8684671040       -2.4287594787        0.4662629556
 C         -1.0410786447       -2.1211019811        1.5269903468
 C          0.0933000140       -2.8901478329        1.7367341971
 C          0.3750163534       -3.9515319723        0.8912508362
 C         -0.4623751859       -4.2437283798       -0.1750424451
 C         -1.5949049446       -3.4772819580       -0.3912116854
 H         -2.2810355640       -3.6809087561       -1.1963401664
 H         -0.2367599063       -5.0676080894       -0.8325769158
 H          1.2496841424       -4.5579289837        1.0666055964
 H          0.7459160634       -2.6450987248        2.5604482881
 H         -1.2836609243       -1.2909322815        2.1738683476
 H         -3.8815209994       -0.9190245730       -1.9180129448
 H         -3.9284759453        1.2228230983       -2.9033124222
 H         -3.0757933421        3.5360563570       -2.8846475585
 H         -1.3790698429        4.2258906827       -1.2512902059
 C         -0.1761917772        2.6311226287        0.6867410135
 H         -0.6443338385        2.4900943582        1.6727958028
 C          0.3435644548        4.0503658881        0.5927468058
 C         -0.4194022443        5.1748531084        1.2235485063
 C          0.8697774644        4.7104960259        1.8301767871
 H          1.7390350354        5.3453863248        1.7467130688
 H          0.8298145426        4.1442989748        2.7497427364
 H         -0.4340805024        6.1328147590        0.7260170674
 H         -1.3375233952        4.9297063191        1.7362569450
 H          0.8671932161        4.2423327885       -0.3364787134
 O          1.5244929347        2.2192511491       -1.5976959652
