  62
        -98.93412193
 C         -2.3904407559       -1.3507748902        0.1577244339
 C         -2.2419684233        0.0439018361       -0.0452751865
 C         -3.2997156352        0.9034525687        0.5229691284
 C         -4.3254185234        0.3495964028        1.1893758924
 C         -5.4862026913        1.0294624175        1.8714568099
 C         -6.1501621152        2.2052613133        1.1422067830
 C         -6.1658707630        2.0948600437       -0.3893939400
 H         -5.8752967340        1.0884300322       -0.6954058666
 H         -7.1833598286        2.2631134397       -0.7468468675
 C         -5.2543073977        3.1178569092       -1.0716118492
 H         -5.3764252133        4.0828180127       -0.5748958695
 H         -5.5772798614        3.2407924711       -2.1082017683
 C         -3.7697046506        2.7563642615       -1.1007590121
 H         -3.6058111190        1.9205022311       -1.7865131110
 H         -3.2213218311        3.6110872141       -1.5045441152
 C         -3.1551100592        2.3743086824        0.2558549593
 H         -2.0795516237        2.5683269521        0.2058804941
 H         -3.5758440423        2.9720146642        1.0609001716
 H         -5.6581495418        3.1346681013        1.4256300483
 H         -7.1746533316        2.2670756559        1.5130416179
 H         -6.2214066279        0.2376900961        2.0345616010
 H         -5.1503316715        1.3640548224        2.8573678824
 O         -4.4243523457       -0.9978111107        1.3700809495
 C         -3.4682119799       -1.8689767987        0.8815477021
 O         -3.6871126503       -3.0664330351        1.1524157291
 H          0.5580773830       -1.0549713133       -1.7589071542
 C          0.8654090995       -1.2525587069       -0.7438323751
 C          0.0100697663       -1.9273491650        0.1116044009
 C          0.4106958053       -2.1410250754        1.4267172135
 C          1.6404081469       -1.6918711050        1.8705590660
 C          2.4874935140       -1.0070253527        1.0168145415
 C          2.0868899935       -0.7713348073       -0.2911136734
 N          2.9305200576       -0.0589331004       -1.1600641149
 S          3.6688534525        1.3388207733       -0.5960753107
 O          2.9011854542        1.9879371026        0.4407357638
 O          3.9440916265        2.1223240602       -1.7813902501
 C          5.2140140737        0.7505864557        0.0699198151
 C          6.0096999806       -0.0459451886       -0.7301963319
 C          7.2195170910       -0.5004588348       -0.2304726046
 C          7.6134014983       -0.1506432624        1.0525831147
 C          6.8054842704        0.6528029369        1.8422733155
 C          5.5935969445        1.1100907664        1.3482176590
 H          4.9302586937        1.7323047545        1.9280977746
 H          7.1129274566        0.9246705963        2.8393421789
 H          8.5553255650       -0.5060618197        1.4395358129
 H          7.8504299568       -1.1254788473       -0.8417119310
 H          5.6687713140       -0.2928951884       -1.7216038758
 H          2.5196313343        0.1033783251       -2.0684974269
 H          3.4389404245       -0.6358372990        1.3611872611
 H          1.9404908396       -1.8687452504        2.8923111556
 H         -0.2618332608       -2.6538794796        2.1009649349
 C         -1.3652508636       -2.3668473517       -0.3224937025
 H         -1.6133409444       -3.2926452290        0.2203181637
 C         -1.4437562444       -2.7018617785       -1.8046426787
 C         -2.7767579498       -2.8733970500       -2.4686556141
 C         -1.8920505521       -1.7262307272       -2.8488582904
 H         -1.4053323565       -1.7544886260       -3.8132983208
 H         -2.1672103919       -0.7330401306       -2.5316454804
 H         -2.9049594098       -3.6828500633       -3.1712150667
 H         -3.6548897888       -2.6666799204       -1.8737497236
 H         -0.6651046290       -3.3998804462       -2.0974554808
 O         -1.2846150954        0.5730910984       -0.6670162542
