  62
        -98.94464029
 C          2.1327107186        1.0456396590       -0.4249724143
 C          3.1922298896        1.2378000188        0.4975789938
 C          4.4372567900        0.5134134392        0.2145855864
 C          4.5066105102       -0.2721827087       -0.8755495417
 C          5.6895111253       -1.1162775000       -1.2500436481
 C          5.5756073240       -2.5259385437       -0.6528810611
 C          5.2389686768       -2.5402521836        0.8383254174
 H          4.2324472851       -2.1395570419        0.9805036108
 H          5.2148389437       -3.5850781976        1.1556710232
 C          6.2249229578       -1.7604992918        1.7196029875
 H          7.1584326984       -1.6005454741        1.1788444288
 H          6.4594404330       -2.3632826967        2.5994972176
 C          5.6968124537       -0.4176262787        2.2276309946
 H          4.7160701960       -0.5609837669        2.6881519247
 H          6.3748628013       -0.0585546364        3.0064087058
 C          5.5778234423        0.6931468698        1.1764799302
 H          5.3798100500        1.6302294236        1.7048830455
 H          6.5229537635        0.7946481131        0.6394010411
 H          6.5190723499       -3.0488698781       -0.8199017381
 H          4.7889793942       -3.0653613471       -1.1857872184
 H          5.7265034411       -1.1943530006       -2.3379409691
 H          6.5996969192       -0.6340341343       -0.8988970386
 O          3.4754964722       -0.4240026089       -1.7435765298
 C          2.2602308432        0.2150790818       -1.5383726355
 O          1.4071762779       -0.0328869567       -2.4119111528
 H         -1.0706022657        0.4529469681       -1.6705644151
 C         -1.0817152814        0.1403992069       -0.6386296555
 C         -0.1971764818        0.7097505799        0.2644110294
 C         -0.2169507730        0.2693733186        1.5852007560
 C         -1.0901417786       -0.7241923723        1.9865354312
 C         -1.9600674951       -1.3030037892        1.0789628202
 C         -1.9480116688       -0.8701982258       -0.2404683428
 N         -2.8208919570       -1.4573155577       -1.1690558759
 S         -4.4040302266       -1.7412123335       -0.7203440045
 O         -4.4811324605       -2.9460737743        0.0686505361
 O         -5.1536275687       -1.7491114788       -1.9569322944
 C         -4.8640739527       -0.3366734882        0.2796006071
 C         -4.8244690382        0.9152712651       -0.3018495414
 C         -5.1502619084        2.0213713933        0.4656429635
 C         -5.5065349963        1.8578321206        1.7957777232
 C         -5.5452326741        0.5942133935        2.3638138995
 C         -5.2196812483       -0.5158797598        1.6006893370
 H         -5.2361729987       -1.5159066193        2.0025153723
 H         -5.8245592870        0.4698470591        3.3976378472
 H         -5.7563920143        2.7213864509        2.3917296664
 H         -5.1222960213        3.0052754892        0.0256576467
 H         -4.5488694383        1.0072177986       -1.3400919694
 H         -2.7486809753       -1.0804692959       -2.1018420714
 H         -2.6328450150       -2.0940542538        1.3678974772
 H         -1.0919162507       -1.0563997780        3.0135194573
 H          0.4742217541        0.7087812838        2.2907574970
 C          0.8140970574        1.7503565321       -0.1483096932
 H          1.0100500519        2.3956141665        0.7185029217
 C          0.3681030228        2.6165900225       -1.3070828098
 C         -0.7037271044        3.6401043193       -1.0839049454
 C          0.7134293330        4.0744158374       -1.3041479854
 H          0.9713962892        4.5434443968       -2.2419489153
 H          1.2696662002        4.4546769677       -0.4599760048
 H         -1.1093976146        3.7241613267       -0.0872346238
 H         -1.4217569620        3.8154467551       -1.8702997049
 H          0.3948349484        2.1073624602       -2.2625115172
 O          3.0996487213        1.9823652040        1.5095521263
