  62
        -98.93988880
 C         -2.1622579528       -0.3918970776        0.0582985085
 C         -2.3271867751        0.7217689811        0.9182157548
 C         -1.9639947618        2.0499630805        0.3875175645
 C         -1.5415322570        2.1418883593       -0.8862674055
 C         -1.0613640470        3.3626581157       -1.6231008835
 C          0.3755304631        3.7513855903       -1.2343740636
 C          0.6875056712        3.6688299218        0.2582950112
 H          0.5007441213        2.6549066956        0.6204044574
 H          1.7589801682        3.8496297245        0.3848656831
 C         -0.0588318986        4.6706939052        1.1373887023
 H          0.2077953767        5.6842575327        0.8281450698
 H          0.2999117483        4.5293077582        2.1604839306
 C         -1.5844738725        4.5562986199        1.1470337382
 H         -2.0113779294        4.9610968197        0.2334067329
 H         -1.9506832242        5.1829972543        1.9657102770
 C         -2.1189751586        3.1511834442        1.4071587724
 H         -1.6676111317        2.7650578357        2.3289817765
 H         -3.1938131305        3.2190535270        1.6172697606
 H          1.0622719214        3.0748397184       -1.7489472086
 H          0.5671726289        4.7652695142       -1.5894688122
 H         -1.0786553934        3.1173366349       -2.6870647248
 H         -1.7466602764        4.1894296996       -1.4625458152
 O         -1.4426780299        1.0509186794       -1.6950284650
 C         -1.6794125207       -0.2384657719       -1.2415238444
 O         -1.4275408066       -1.1181370191       -2.0842237375
 H         -0.0077154857       -1.1159675841        1.6757804939
 C          0.0755165192       -2.0128362312        1.0780434699
 C         -1.0610519456       -2.5389084618        0.4737570803
 C         -0.9394012105       -3.6964521356       -0.2817579713
 C          0.2976032119       -4.2992391917       -0.4347562450
 C          1.4300454479       -3.7575543334        0.1450736096
 C          1.3188971461       -2.5989169390        0.9073830457
 N          2.4488347301       -2.0336343149        1.5263060324
 S          2.7711432906       -0.3960749690        1.4358018356
 O          4.0737618973       -0.2537799514        2.0482645725
 O          1.6980143120        0.3576814067        2.0308800567
 C          2.8907164655       -0.0342982768       -0.3040676751
 C          1.7249776796        0.1409685385       -1.0197975984
 C          1.7986653392        0.3661234856       -2.3846079934
 C          3.0367060430        0.4190138387       -3.0065496786
 C          4.2014203139        0.2467139048       -2.2730232771
 C          4.1314077023        0.0104688155       -0.9095174840
 H          5.0099809089       -0.1275128848       -0.3003086123
 H          5.1617148765        0.2916019965       -2.7610632772
 H          3.0908838311        0.5964007544       -4.0691066954
 H          0.8833537476        0.4838820546       -2.9437812132
 H          0.7781531066        0.0969150633       -0.5053294010
 H          3.3003552206       -2.5584896954        1.3856355054
 H          2.3942279123       -4.2244255945        0.0122480207
 H          0.3831090960       -5.1971485932       -1.0276025307
 H         -1.8072217543       -4.1115226457       -0.7670945920
 C         -2.3499159771       -1.7761328591        0.6567404421
 H         -2.4723943144       -1.5827978057        1.7362342430
 C         -3.5911788483       -2.5342310332        0.2189570574
 C         -4.8375511128       -1.7982846685       -0.1714384364
 C         -4.0776651797       -2.5818003126       -1.1971764566
 H         -4.5099285627       -3.5061869302       -1.5522989140
 H         -3.5115673117       -2.0484068213       -1.9428919557
 H         -4.7840391929       -0.7196313931       -0.2108625737
 H         -5.7892369053       -2.1764650062        0.1707310313
 H         -3.7326292229       -3.4359742629        0.8078952335
 O         -2.7417747309        0.6120623348        2.1045531912
