  62
        -98.94269890
 C         -1.6289028763       -1.4667057703        0.2337470512
 C         -1.3215649201       -0.3727413638       -0.6071120266
 C         -1.9651129795        0.9053255224       -0.2742423605
 C         -2.7650281419        0.9715486164        0.8052984779
 C         -3.5288848043        2.1851594428        1.2537109483
 C         -4.7646722653        2.4025865866        0.3574204231
 C         -4.7204483901        3.6841767754       -0.4747218106
 H         -5.5235331222        3.6240011476       -1.2122340207
 H         -4.9313664924        4.5363364769        0.1746843328
 C         -3.3987107179        3.9602015557       -1.1970395477
 H         -2.6736611471        4.3711469300       -0.4927347165
 H         -3.5955175213        4.7416116079       -1.9341107435
 C         -2.7635246912        2.7585814185       -1.9078973199
 H         -3.5195850758        2.0110914919       -2.1485396660
 H         -2.3456123975        3.1068900326       -2.8544524280
 C         -1.6133656577        2.0877373645       -1.1343742821
 H         -0.8896127489        1.6994332994       -1.8572967811
 H         -1.0922863502        2.8307486241       -0.5225811342
 H         -4.8623901196        1.5394504825       -0.3040829600
 H         -5.6623425445        2.4272532860        0.9770214046
 H         -2.8742497037        3.0539891187        1.2286910353
 H         -3.8323061676        2.0115295070        2.2866454326
 O         -3.0340245328       -0.1018303290        1.5943392499
 C         -2.4600002110       -1.3370100690        1.3435474001
 O         -2.7637535729       -2.2262097280        2.1666025575
 O         -0.5351747874       -0.4602166492       -1.5879365760
 C         -0.9614761678       -2.8080159335       -0.0101825853
 C          0.5378707595       -2.6287891889       -0.0412702134
 C          1.3680078026       -3.2876910629       -0.9397828556
 C          2.7334931617       -3.0596584388       -0.9314320408
 C          3.2959821486       -2.1564279727       -0.0480478232
 C          2.4748119956       -1.5012017049        0.8620086866
 C          1.1154519238       -1.7642846270        0.8800420278
 H          0.4932151481       -1.2480893350        1.5970286041
 N          2.9889639209       -0.5534562542        1.7727536119
 S          2.4531537403        1.0274129703        1.6072020502
 O          3.1828865924        1.7747418611        2.6100199426
 O          1.0166613372        1.0780279619        1.6947510371
 C          3.0186701201        1.5154961667       -0.0133888583
 C          4.1924378222        2.2389880422       -0.1103227487
 C          4.6785477357        2.5669479541       -1.3651947344
 C          3.9908311182        2.1582096697       -2.4982130582
 C          2.8182479310        1.4282519853       -2.3828940752
 C          2.3224449155        1.0989187067       -1.1301055292
 H          1.4092776705        0.5342048536       -1.0211417980
 H          2.2778329312        1.1048448727       -3.2581475886
 H          4.3695815157        2.4095052530       -3.4764013482
 H          5.5899250056        3.1357872231       -1.4555200956
 H          4.6899094867        2.5363741819        0.7988179185
 H          3.9989543664       -0.5499731457        1.8256817051
 H          4.3569602071       -1.9569268647       -0.0603277166
 H          3.3653035528       -3.5778543660       -1.6364221375
 H          0.9437372405       -3.9755668758       -1.6528154374
 H         -1.2177453555       -3.4393826845        0.8536541602
 C         -1.5137161478       -3.4493928794       -1.2672100373
 C         -1.6059899460       -4.9407552856       -1.3815599248
 C         -2.8498013371       -4.1242970431       -1.2045413664
 H         -3.5228111469       -4.0164153970       -2.0418310102
 H         -3.3470233920       -4.1451250729       -0.2453276076
 H         -1.4287869130       -5.3964401411       -2.3441052043
 H         -1.2656206496       -5.5294751122       -0.5431171936
 H         -1.2826544929       -2.8782922075       -2.1590972327
