  62
        -98.94127637
 C         -2.3351322695       -1.1538661230        0.5369947786
 C         -2.6634258952       -0.3616114558       -0.5899460028
 C         -3.1117378048        1.0100744029       -0.3029736698
 C         -3.1893468358        1.4343040375        0.9700313951
 C         -3.6008138645        2.8130856676        1.3962447813
 C         -2.3905115012        3.7431575824        1.5522212362
 C         -1.4343060299        3.7329443880        0.3588723002
 H         -0.6570985488        4.4741737772        0.5606637423
 H         -0.9310827589        2.7644546348        0.2978964058
 C         -2.0932949249        4.0473607230       -0.9912266583
 H         -3.0470311736        4.5531673197       -0.8328024343
 H         -1.4455280197        4.7346984425       -1.5397385919
 C         -2.3047834777        2.8285144724       -1.8915028277
 H         -1.3737659527        2.2554445099       -1.9400997543
 H         -2.5238315823        3.1847435950       -2.9022092147
 C         -3.4417495988        1.8833720440       -1.4801973272
 H         -4.3503272554        2.4600186168       -1.2945667391
 H         -3.6302373544        1.2034107699       -2.3164305534
 H         -2.7580568093        4.7585286332        1.7145959998
 H         -1.8296529286        3.4376509589        2.4383765567
 H         -4.2925243270        3.2211926982        0.6617645974
 H         -4.1109435063        2.7343812035        2.3581022692
 O         -2.8729492675        0.6453547658        2.0279075833
 C         -2.4116563766       -0.6444201711        1.8365174079
 O         -2.1203728413       -1.2443050634        2.8909565303
 H         -0.4064833396       -1.1895756849       -1.4086451032
 C          0.2494793691       -1.6934177443       -0.7140108855
 C         -0.2936204307       -2.4928060619        0.2829114152
 C          0.5712457230       -3.1293138444        1.1644101604
 C          1.9413816265       -2.9577220301        1.0565632517
 C          2.4742120461       -2.1288128699        0.0841909011
 C          1.6153978603       -1.4940407988       -0.8021867237
 N          2.1434018367       -0.5614776309       -1.7398275470
 S          2.1936216177        0.9784903961       -1.0414284418
 O          1.0306014641        1.2260457426       -0.2178448059
 O          2.4129000542        1.9035329451       -2.1318022351
 C          3.6508043285        0.8686128132       -0.0294145752
 C          4.8847956764        0.9009152783       -0.6492863548
 C          6.0254326802        0.7620109254        0.1250005235
 C          5.9118693204        0.5893382247        1.4967293097
 C          4.6652590268        0.5591398560        2.1033004942
 C          3.5201436149        0.6988975743        1.3344796004
 H          2.5296797602        0.6764533870        1.7617958277
 H          4.5778849859        0.4229278299        3.1692559036
 H          6.8002245468        0.4772236951        2.0980560320
 H          6.9967829170        0.7851880996       -0.3420702198
 H          4.9218805128        1.0387816113       -1.7170880713
 H          1.5715900802       -0.4993959876       -2.5730706441
 H          3.5372904118       -1.9683705592        0.0068621047
 H          2.5997311632       -3.4584590436        1.7494958742
 H          0.1605025069       -3.7414927165        1.9539897631
 C         -1.7906807378       -2.5725455048        0.4340007153
 H         -2.0048565471       -3.0377349575        1.4088299154
 C         -2.4750448676       -3.4109606326       -0.6358662610
 C         -1.7758261665       -3.9259107840       -1.8551819214
 C         -2.1457985970       -4.8700775329       -0.7536927485
 H         -2.9498196572       -5.5713109845       -0.9168588899
 H         -1.3472098727       -5.2474942958       -0.1328055876
 H         -0.7330653892       -3.6839898668       -1.9895082524
 H         -2.3366980893       -3.9526664262       -2.7770417394
 H         -3.5164624318       -3.1352857853       -0.7627591999
 O         -2.5955302904       -0.7582799371       -1.7841216788
