  62
        -98.93666282
 C         -1.7193946698       -0.8103039735       -0.1268093830
 C         -2.8529598344       -0.9011036402        0.7214377198
 C         -4.0656436626       -0.1687939868        0.3153022363
 C         -4.0335333305        0.5635651880       -0.8120044251
 C         -5.1288639300        1.3886254095       -1.4382999274
 C         -5.9544862443        2.2696807531       -0.4882161676
 C         -7.3892768333        1.7763081005       -0.2942108016
 H         -8.0115339772        2.6219404267        0.0072104065
 H         -7.7674843338        1.4202274687       -1.2547993477
 C         -7.5617599434        0.6793118674        0.7549348255
 H         -7.4223999073        1.1068185080        1.7503266376
 H         -8.5936119799        0.3251774847        0.6954511780
 C         -6.6228446366       -0.5200671099        0.6093784130
 H         -6.5123788194       -0.7938495269       -0.4392771727
 H         -7.0882605328       -1.3700139631        1.1129817324
 C         -5.2412882971       -0.3019117616        1.2442094469
 H         -5.2676036481        0.5692489803        1.9054797884
 H         -4.9920492075       -1.1547138171        1.8833140406
 H         -5.4493131114        2.3533410872        0.4729571198
 H         -5.9983641845        3.2720421951       -0.9174774615
 H         -4.6247531098        2.0130810603       -2.1795243069
 H         -5.7916092106        0.7205094662       -1.9939386452
 O         -2.9211208083        0.6306849423       -1.5946237124
 C         -1.7495147961       -0.0397101272       -1.2878018274
 O         -0.8420287020        0.1498946242       -2.1242312521
 H          0.7556985294        0.5886169645       -0.6985493367
 C          1.0967473763        0.3548938145        0.2989385551
 C          0.5418757150       -0.7238875805        0.9724641592
 C          0.9946210096       -1.0089886563        2.2549629224
 C          1.9780855264       -0.2338382906        2.8456940794
 C          2.5296801890        0.8397925380        2.1701468014
 C          2.0763734345        1.1366823715        0.8915302926
 N          2.6476208941        2.2167602282        0.1839901525
 S          4.2984461333        2.0752965066       -0.0814048845
 O          5.0040484591        2.4620838027        1.1147127321
 O          4.5774079718        2.8606393285       -1.2627003241
 C          4.5436584629        0.3369571699       -0.3977889588
 C          5.1558133386       -0.4562948300        0.5507850986
 C          5.2636305025       -1.8175145055        0.3155218419
 C          4.7541767733       -2.3589231253       -0.8541448093
 C          4.1413374595       -1.5482746459       -1.7972953066
 C          4.0306859816       -0.1869830590       -1.5677433174
 H          3.5605620692        0.4715786528       -2.2810676091
 H          3.7431389361       -1.9694537381       -2.7067440992
 H          4.8357648346       -3.4195479617       -1.0331613793
 H          5.7389399581       -2.4515314374        1.0462751908
 H          5.5351207758        0.0059347958        1.4471955381
 H          2.1759187374        2.3960785856       -0.6917102126
 H          3.3036525714        1.4500249036        2.6070551411
 H          2.3198857454       -0.4685862846        3.8420052037
 H          0.5641542559       -1.8403865919        2.7933646280
 C         -0.4902795171       -1.5954169837        0.2980925931
 H         -0.8561179901       -2.3161611709        1.0412765707
 C          0.1567962845       -2.3628094419       -0.8401161959
 C          1.0278569313       -3.5387290713       -0.5206744813
 C         -0.3136531763       -3.7495904909       -1.1548366093
 H         -0.3572627563       -4.0550981025       -2.1894500229
 H         -1.1082941504       -4.1575751559       -0.5472072062
 H          1.1446651245       -3.8063824821        0.5181727782
 H          1.9110548367       -3.6995615006       -1.1183473390
 H          0.4433287868       -1.7328308416       -1.6718851413
 O         -2.8549644299       -1.5832465488        1.7812006147
