  62
        -98.94591784
 C         -1.2981724421       -1.4212723618        0.6200260643
 C         -2.3762720894       -1.3125112565       -0.2930524696
 C         -3.3719270217       -0.2713530623        0.0093238691
 C         -3.2165488067        0.5032815093        1.0971692347
 C         -4.1322593525        1.6251748713        1.4926557931
 C         -3.6902697165        2.9645490360        0.8856756602
 C         -3.3818155995        2.8965759071       -0.6098599231
 H         -3.1051204648        3.9035284571       -0.9292237580
 H         -2.5131473846        2.2538775592       -0.7692849613
 C         -4.5460716090        2.3935253385       -1.4743153164
 H         -5.4821809583        2.4742990500       -0.9204029891
 H         -4.6334533068        3.0361908531       -2.3528045761
 C         -4.3825898632        0.9611422712       -1.9852072391
 H         -3.4042405415        0.8491920164       -2.4590279185
 H         -5.1406107260        0.7858667378       -2.7532419269
 C         -4.5369548000       -0.1424892971       -0.9314527234
 H         -5.4652316054        0.0060156256       -0.3758884083
 H         -4.6019973561       -1.0984491931       -1.4590368439
 H         -4.4797288718        3.6973152437        1.0627494987
 H         -2.7936549712        3.3054086786        1.4086148522
 H         -5.1438067291        1.3868647831        1.1688634078
 H         -4.1213460639        1.7082615879        2.5809844615
 O         -2.1710876076        0.3678658933        1.9536475852
 C         -1.1970058857       -0.5927294303        1.7407225161
 O         -0.3041306773       -0.6116918452        2.6128971536
 H          2.2184613175       -1.2711419120        0.8305005285
 C          1.9793779591       -1.3589852104       -0.2188029710
 C          0.7868611934       -1.9522200501       -0.6107812375
 C          0.5075375619       -2.0582487042       -1.9694303688
 C          1.4066551156       -1.5826355801       -2.9061999814
 C          2.5897215988       -0.9827533190       -2.5119509672
 C          2.8761701288       -0.8668889419       -1.1570675030
 N          4.0718565019       -0.2679261751       -0.7264843195
 S          4.0431752695        0.8019935495        0.5600705691
 O          5.2695807238        1.5575620213        0.4202697787
 O          3.8819593994        0.0849204249        1.7980843545
 C          2.6445910374        1.8592151169        0.2370358878
 C          1.4592610409        1.6795189660        0.9184834779
 C          0.3775763289        2.4853160190        0.5982502270
 C          0.4955722093        3.4486113334       -0.3902724641
 C          1.6969007621        3.6204455654       -1.0620951803
 C          2.7808777606        2.8177347287       -0.7494448179
 H          3.7349387475        2.9291316464       -1.2388328037
 H          1.7881581620        4.3746851268       -1.8268990222
 H         -0.3525295379        4.0689295630       -0.6340276011
 H         -0.5512955759        2.3430682208        1.1281846682
 H          1.3829638693        0.9237202640        1.6847765339
 H          4.6523774152        0.0836792866       -1.4744209978
 H          3.2887106715       -0.6095395348       -3.2448132580
 H          1.1799307438       -1.6729666330       -3.9576625923
 H         -0.4279283078       -2.4927217373       -2.2831317129
 C         -0.1764793040       -2.4354243705        0.4475883027
 H          0.3632263101       -2.4449724334        1.4045233739
 C         -0.6809849996       -3.8379674551        0.1725490276
 C          0.2457240922       -4.9941502213        0.3920649441
 C         -0.9078664396       -4.7703525921        1.3223622530
 H         -1.7470585347       -5.4483373499        1.2783726104
 H         -0.6978909220       -4.4010577462        2.3161396281
 H          1.2389968835       -4.7755198466        0.7555252135
 H          0.2011059898       -5.8282859282       -0.2910990526
 H         -1.3756413849       -3.8972691437       -0.6542265250
 O         -2.5265379303       -2.0404778132       -1.3079421965
