  62
        -98.93910440
 C         -2.6295084107       -1.2465518293        0.4158330301
 C         -3.0223520905       -0.1248126190        1.1905203197
 C         -4.2257176304        0.5852508811        0.7474439294
 C         -4.8932702604        0.1481710408       -0.3357584104
 C         -6.1589232003        0.7385614308       -0.8959018907
 C         -5.9323660101        1.9364975804       -1.8279640711
 C         -5.5018520499        3.2285969106       -1.1327476715
 H         -5.5906000997        4.0325043504       -1.8661288718
 H         -6.1941378599        3.4513751710       -0.3202367916
 C         -4.0639668699        3.2086921206       -0.5951456315
 H         -3.5091517000        2.3924026503       -1.0639130112
 H         -3.5576770597        4.1364891404       -0.8713197818
 C         -3.9554772600        3.0699349011        0.9235123786
 H         -2.8952569400        3.0292466010        1.1879260086
 H         -4.3881303798        3.9504193613        1.4040002982
 C         -4.6356556602        1.8184838914        1.4939692190
 H         -5.7190131802        1.9356531316        1.4700399089
 H         -4.3183035102        1.6993577217        2.5329053190
 H         -5.1867435101        1.6605588601       -2.5770845110
 H         -6.8735117600        2.1259963804       -2.3491744612
 H         -6.6446873004       -0.0550266093       -1.4676971704
 H         -6.8182762803        1.0319108212       -0.0784801608
 O         -4.4880643406       -0.9307098595       -1.0526933800
 C         -3.3376963007       -1.6403384496       -0.7206467398
 O         -3.0873556209       -2.5731303199       -1.5039888794
 O         -2.3985494805        0.2541290512        2.2193393296
 C         -1.3878184609       -1.9856781194        0.8815084704
 C         -0.1544838507       -1.4023338998        0.2406959202
 C         -0.0445740807       -1.2847509804       -1.1418209398
 C          1.0938520394       -0.7410881308       -1.7076212300
 C          2.1397799295       -0.3009148607       -0.9140583201
 C          2.0304869394       -0.3913497202        0.4666034099
 C          0.8882894793       -0.9465549097        1.0325084701
 H          0.8014594793       -1.0057106094        2.1090086201
 N          3.0831440795        0.0414613400        1.2841406198
 S          3.9516363897        1.4202152097        0.8939541094
 O          4.5378302798        1.8526052200        2.1433847192
 O          3.1382710099        2.3885076396        0.1964517090
 C          5.2419141997        0.8130720691       -0.1731622804
 C          5.4804709998        1.4288833586       -1.3860253106
 C          6.4981093797        0.9463073881       -2.1944311804
 C          7.2560484295       -0.1368653019       -1.7771319000
 C          7.0057977094       -0.7424073214       -0.5546610698
 C          5.9908683495       -0.2642608409        0.2583820700
 H          5.7671794294       -0.7057958505        1.2150854001
 H          7.5971969692       -1.5847445914       -0.2336860095
 H          8.0461744295       -0.5115297422       -2.4084994799
 H          6.6943725699        1.4162683478       -3.1447776506
 H          4.8625565600        2.2651133986       -1.6729940509
 H          2.8890854695       -0.0076941997        2.2734212198
 H          3.0240001796        0.1289402390       -1.3548378702
 H          1.1698394195       -0.6587797111       -2.7814004900
 H         -0.8606902007       -1.6236361204       -1.7624201397
 H         -1.3285355908       -1.7687510990        1.9603512603
 C         -1.4857391611       -3.4973165494        0.7325837209
 C         -0.6606838812       -4.2972281099       -0.2256697088
 C         -0.3744822313       -4.3673829795        1.2423069613
 H         -0.6260229115       -5.2683197892        1.7808887016
 H          0.5161083688       -3.8716019295        1.5989169411
 H         -1.1351364514       -5.1389562300       -0.7062756185
 H          0.0412548489       -3.7765777503       -0.8571067889
 H         -2.4971531912       -3.8523347092        0.9020639210
