  62
        -98.93957075
 C         -1.7716937460       -1.5542695774        0.3031972449
 C         -2.0748616750       -0.5242150787        1.2319254660
 C         -3.0785795059        0.4618114987        0.8147057974
 C         -3.6522212688        0.3524260910       -0.3971592536
 C         -4.7432383693        1.2297658270       -0.9489656747
 C         -4.2432019136        2.5254238808       -1.6014466481
 C         -3.7379498302        3.5866828302       -0.6240550435
 H         -3.6154273234        4.5125660618       -1.1895614924
 H         -4.4977306017        3.7674204937        0.1371266963
 C         -2.4038524189        3.2387285551        0.0505859198
 H         -1.9087416217        2.4426463074       -0.5113805056
 H         -1.7407953917        4.1064391590        0.0176952537
 C         -2.5261061876        2.8158531702        1.5140488422
 H         -1.5229619044        2.5972136288        1.8853760666
 H         -2.9255506703        3.6466433313        2.0996099214
 C         -3.4106615604        1.5838319015        1.7525173758
 H         -4.4618507170        1.8556650916        1.6544825883
 H         -3.2357683924        1.2273082156        2.7705087404
 H         -3.4516390098        2.2783866595       -2.3133070589
 H         -5.0762978590        2.9488784221       -2.1672838896
 H         -5.2596448458        0.6392344636       -1.7091032301
 H         -5.4520906354        1.4719426727       -0.1564757786
 O         -3.3058142601       -0.6208583174       -1.2780231591
 C         -2.3400133313       -1.5779576065       -0.9720793366
 O         -2.1034300968       -2.3541179230       -1.9153159315
 O         -1.5386776037       -0.4437364165        2.3681988792
 C         -0.7628389139       -2.5993515670        0.7495432099
 C          0.6524435794       -2.1601910392        0.4657966255
 C          1.6837346144       -2.4289889129        1.3590312131
 C          2.9758125640       -2.0076218403        1.0951687435
 C          3.2571487431       -1.2678789086       -0.0393053139
 C          2.2253516172       -0.9599050713       -0.9166480388
 C          0.9437957784       -1.4351177596       -0.6794805977
 H          0.1544853641       -1.2141253836       -1.3853125061
 N          2.4757001304       -0.0893379814       -1.9943226988
 S          3.1095884761        1.4123936681       -1.5594116704
 O          2.3847979274        2.3837354510       -2.3504918381
 O          4.5375911546        1.3893996937       -1.7625986131
 C          2.7735096377        1.6051063331        0.1856534322
 C          3.8324672822        1.8129888327        1.0464041271
 C          3.5904622608        1.8654812483        2.4096742280
 C          2.3045408557        1.6722473376        2.8889272519
 C          1.2495378265        1.4670215921        2.0128024229
 C          1.4797922685        1.4552453851        0.6470173265
 H          0.6689646133        1.3083469908       -0.0499160531
 H          0.2552110850        1.2731729326        2.3855055606
 H          2.1171835791        1.6744278996        3.9509613853
 H          4.4070914286        2.0331201347        3.0931561931
 H          4.8218744288        1.9146208720        0.6310162939
 H          1.6671978275        0.0437685623       -2.5859916997
 H          4.2489369454       -0.8996256249       -0.2485397354
 H          3.7680627079       -2.2375947335        1.7901980734
 H          1.4648833404       -2.9562647160        2.2753026517
 H         -0.8696581017       -2.6479525736        1.8450840096
 C         -1.0603177306       -3.9867834746        0.1979267757
 C         -0.2668492289       -4.6107836811       -0.9067066636
 C         -0.1498687555       -5.1430275628        0.4879403107
 H         -0.5945890803       -6.1001725858        0.7142302545
 H          0.7670482917       -4.9433400501        1.0200421764
 H         -0.8017417229       -5.1841809091       -1.6480149528
 H          0.5617379408       -4.0508569996       -1.3124301589
 H         -2.1249648461       -4.1980429564        0.1983213622
