  62
        -98.93924878
 C          0.9070228111        1.6382102796       -0.8143973896
 C          2.2218982609        1.6999873590       -0.2711700092
 C          3.0862078507        0.5354320489       -0.4751381593
 C          2.6238664207       -0.5195817007       -1.1670797699
 C          3.3601783004       -1.8037203008       -1.4329321101
 C          3.2647597398       -2.8057058612       -0.2738283405
 C          4.1175987895       -2.4647885019        0.9488795599
 H          4.1513675991       -3.3592678721        1.5743438596
 H          5.1389292697       -2.2474859920        0.6331200403
 C          3.5753706995       -1.3008142021        1.7906795202
 H          2.5199699896       -1.1377042217        1.5546819999
 H          3.6182322891       -1.5697523525        2.8492655201
 C          4.3417013099        0.0129999578        1.6297825709
 H          5.3561033897       -0.1067843026        2.0182554212
 H          3.8379821499        0.7749492877        2.2302721110
 C          4.4301287505        0.5289731083        0.1879443011
 H          4.7933199608        1.5594394682        0.2161101316
 H          5.1333099305       -0.0750471517       -0.3853559289
 H          2.2195078897       -2.8880363811        0.0369661891
 H          3.5807763197       -3.7805694212       -0.6533242307
 H          2.9031401706       -2.2509682504       -2.3183063204
 H          4.4079323206       -1.5937346710       -1.6499343897
 O          1.3915498109       -0.5250442502       -1.7280868603
 C          0.4880539311        0.5154651199       -1.5336857702
 O         -0.6133347488        0.2881003904       -2.0684388906
 H         -1.1786687495        0.3906074397        0.1339966892
 C         -1.3868081096        1.1345572595        0.8817051195
 C         -0.8953512292        2.4214683794        0.7424550501
 C         -1.2197663993        3.3608733392        1.7171687903
 C         -1.9900997897        3.0055582990        2.8093312399
 C         -2.4246139601        1.7012440890        2.9740087993
 C         -2.1122803600        0.7591828393        2.0023064491
 N         -2.5151299404       -0.5780174907        2.1147405585
 S         -1.5716772005       -1.7989734707        1.4624603783
 O         -1.9679473410       -2.9825815408        2.2014695877
 O         -0.1617138004       -1.4844409310        1.5133413989
 C         -2.1276005500       -1.9846956799       -0.2168860119
 C         -1.2824645299       -2.6048972798       -1.1135732019
 C         -1.7132588895       -2.8077671792       -2.4137838421
 C         -2.9778565593       -2.3884823887       -2.7927963824
 C         -3.8158743294       -1.7687148789       -1.8797454324
 C         -3.3919817698       -1.5661914394       -0.5766007922
 H         -4.0154612499       -1.0764348396        0.1531377578
 H         -4.7958926592       -1.4344554285       -2.1808277326
 H         -3.3076033090       -2.5377611283       -3.8089990325
 H         -1.0555890494       -3.2790446191       -3.1267006521
 H         -0.2968430200       -2.8970987001       -0.7853201917
 H         -2.9315900208       -0.8420663109        2.9951014282
 H         -2.9919148005        1.4141833688        3.8460041690
 H         -2.2325392098        3.7444971387        3.5578874501
 H         -0.8450717890        4.3695979391        1.6242281708
 C          0.0104923813        2.7974187496       -0.4124187795
 H          0.7296456313        3.5287839093       -0.0083318190
 C         -0.7838182882        3.5595499802       -1.4695393795
 C         -0.5881197478        3.3905055807       -2.9433244295
 C         -1.8770560881        2.9686545008       -2.3042222200
 H         -2.7596757079        3.5661964711       -2.4793069101
 H         -2.0567147484        1.9098136108       -2.2208222605
 H         -0.5718360573        4.2727876810       -3.5663262691
 H          0.0777557521        2.6067826607       -3.2722235095
 H         -0.9649332980        4.5790528302       -1.1401045691
 O          2.6565545510        2.6947001987        0.3724295613
