  62
        -98.93959966
 C          2.2800022500        0.9043699692        0.6438057526
 C          3.4211566696        0.8853206723       -0.1955370271
 C          4.4182287984       -0.1564342243        0.0975444099
 C          4.2061037699       -1.0157017982        1.1095853647
 C          5.1088962528       -2.1586064471        1.4716346097
 C          4.7028319952       -3.4434977625        0.7362017609
 C          4.4976134585       -3.2569522545       -0.7672452000
 H          4.2443780410       -4.2343019603       -1.1838964185
 H          3.6350252680       -2.6062473907       -0.9303875562
 C          5.7137030562       -2.6838374013       -1.5083564187
 H          5.8656247937       -3.2561691406       -2.4258288069
 H          6.6096089108       -2.8051479918       -0.8985057862
 C          5.5733293128       -1.2162302779       -1.9161073720
 H          4.6282888656       -1.0719313375       -2.4456389299
 H          6.3802126936       -0.9787377646       -2.6143706022
 C          5.6441313307       -0.1976527133       -0.7716124444
 H          6.5360262225       -0.3812744499       -0.1695456670
 H          5.7279856124        0.7974217231       -1.2176948476
 H          5.4722789003       -4.1980022546        0.9097960564
 H          3.7664568003       -3.8069915294        1.1663155692
 H          6.1355554183       -1.8952772969        1.2246730483
 H          5.0346587119       -2.3271926979        2.5472695743
 O          3.1033436695       -0.9639137803        1.9007917322
 C          2.1220660502       -0.0119845007        1.6885602348
 O          1.1718008835       -0.0743683139        2.4964734225
 H         -1.4198180958        1.1172095323        0.7208328585
 C         -1.0952693002        1.1263857817       -0.3092217669
 C          0.2059861533        1.4947538177       -0.6208666118
 C          0.6075857905        1.4787604282       -1.9527076293
 C         -0.2772158387        1.0946726154       -2.9432814920
 C         -1.5723827756        0.7232727383       -2.6290818517
 C         -1.9861159338        0.7425494999       -1.3019062924
 N         -3.3131087703        0.4182283912       -0.9689314057
 S         -3.6403436255       -0.3649397382        0.4898708891
 O         -3.5700133159        0.5973483508        1.5602973262
 O         -2.8148144047       -1.5454098387        0.6193561616
 C         -5.3421672689       -0.8212452618        0.2134616858
 C         -6.3075599622        0.1636247714        0.3090179045
 C         -7.6308201412       -0.1697062282        0.0688437751
 C         -7.9655767475       -1.4749371529       -0.2608181792
 C         -6.9864978281       -2.4527276868       -0.3505092903
 C         -5.6603582145       -2.1255235203       -0.1131379343
 H         -4.8660480552       -2.8528562063       -0.1648919929
 H         -7.2498196471       -3.4670056561       -0.6039181984
 H         -8.9964184215       -1.7321747342       -0.4463434356
 H         -8.3949811327        0.5873128382        0.1402854760
 H         -6.0007630123        1.1610038762        0.5772659492
 H         -3.8044395199       -0.0267232654       -1.7329462043
 H         -2.2606538406        0.4234988201       -3.4048892795
 H          0.0468763950        1.0800566307       -3.9730344899
 H          1.6219602435        1.7516339102       -2.1987332576
 C          1.1473531285        1.9074431670        0.4861072812
 H          0.5835524511        1.8635094006        1.4285184943
 C          1.6295014354        3.3315856955        0.2857918498
 C          0.6910758743        4.4582467824        0.5911927375
 C          1.8669098859        4.1982360567        1.4835926486
 H          2.6957550204        4.8896981684        1.4626919669
 H          1.6830187415        3.7660007824        2.4569970649
 H         -0.2913221823        4.2022815816        0.9601230426
 H          0.7102712412        5.3310186784       -0.0430495130
 H          2.3029315350        3.4462870532       -0.5526448120
 O          3.6240857858        1.6864291073       -1.1454916985
