  62
        -98.94463540
 C          0.7881909067        1.3690350195        0.2881137288
 C          1.1476657146        0.4482732658       -0.7265147269
 C          2.2629673160       -0.4527817067       -0.3967505549
 C          2.7744479981       -0.4687570984        0.8458840498
 C          3.8936463435       -1.3456988097        1.3372387508
 C          5.2925003706       -0.7884635402        1.0381885743
 C          5.7203915564       -0.8553884676       -0.4286086773
 H          6.7898625965       -0.6377988829       -0.4603035320
 H          5.5849147966       -1.8713520707       -0.8006600864
 C          4.9899309472        0.1333575547       -1.3484685067
 H          5.7147203750        0.6320051033       -1.9959984890
 H          4.5138305413        0.9097493971       -0.7452386588
 C          3.9359896377       -0.5025902389       -2.2558005792
 H          4.4209962035       -1.1806461111       -2.9618205681
 H          3.4536434176        0.2919897740       -2.8311096586
 C          2.8438867678       -1.2769401687       -1.5057143872
 H          2.0389394033       -1.5066430608       -2.2082911798
 H          3.2522052350       -2.2105418033       -1.1199971235
 H          6.0073377708       -1.3661227191        1.6286889432
 H          5.3372209196        0.2471668817        1.3828131706
 H          3.8008545094       -2.3427637241        0.9071001061
 H          3.7791103536       -1.4186692989        2.4205191778
 O          2.2997804577        0.3315961422        1.8361010232
 C          1.3502377922        1.3010556101        1.5669884596
 O          1.0829416230        2.0359264207        2.5386753942
 O          0.5975451384        0.3679517085       -1.8560082794
 C         -0.2173449109        2.4931984117        0.0946037880
 C         -1.6211521393        2.0490731068        0.4245289676
 C         -2.3746951339        2.7459438510        1.3620077167
 C         -3.6621101923        2.3456367565        1.6695529196
 C         -4.2116976870        1.2322118326        1.0619036401
 C         -3.4634812361        0.5247179824        0.1259830479
 C         -2.1802955268        0.9422354896       -0.1995628063
 H         -1.6168426368        0.3984854956       -0.9427863296
 N         -4.0004893502       -0.6173392977       -0.4797932210
 S         -3.0407588563       -1.8562660408       -1.0405024357
 O         -2.5087323095       -1.5333595685       -2.3389767711
 O         -3.9144047227       -3.0128858891       -1.0028508374
 C         -1.7193125975       -2.1041518014        0.1351273128
 C         -1.9139864183       -1.8641777735        1.4805705684
 C         -0.8827959566       -2.1353263562        2.3659139458
 C          0.3092780311       -2.6653843668        1.8998479374
 C          0.4823656841       -2.9179812081        0.5486505009
 C         -0.5361681988       -2.6272956230       -0.3438152599
 H         -0.4321102738       -2.7848978611       -1.4054130894
 H          1.4041785196       -3.3413667481        0.1855625414
 H          1.1073237579       -2.8814376874        2.5924838394
 H         -1.0141635314       -1.9335459425        3.4169355739
 H         -2.8508030073       -1.4637677276        1.8318400179
 H         -4.8688039306       -0.9526481590       -0.0900176889
 H         -5.2110414509        0.9068867526        1.3072902601
 H         -4.2385669020        2.8967951872        2.3965401516
 H         -1.9380166153        3.5984171284        1.8603115427
 H          0.0622088921        3.2659842499        0.8247375671
 C         -0.1760615671        3.1123096561       -1.2890057994
 C         -0.6086076963        4.5358741553       -1.4618852607
 C          0.8397703711        4.1712207395       -1.5887368990
 H          1.2956772781        4.1842615102       -2.5673283010
 H          1.5100096392        4.4602242436       -0.7918672174
 H         -1.1521608306        4.8025586552       -2.3552265629
 H         -0.9176504249        5.0778383117       -0.5809010052
 H         -0.4142684700        2.4132725710       -2.0800268767
