  62
        -98.94131482
 C         -2.4930415680       -1.3384443233        0.0176461575
 C         -3.1592899654       -0.6065090136        1.0357451227
 C         -3.9512090745        0.5475760090        0.5998769792
 C         -4.0214235648        0.8490316488       -0.7088954012
 C         -4.8021052933        1.9813616099       -1.3186266863
 C         -4.0654295040        3.3277140331       -1.2968461327
 C         -3.9634317830        3.9911533572        0.0771972348
 H         -4.9542489348        4.0416592446        0.5297789449
 H         -3.6264591983        5.0165330704       -0.0872559894
 C         -2.9886329316        3.3030090140        1.0433589296
 H         -2.3625559289        4.0563525905        1.5272259019
 H         -2.3148350673        2.6497601857        0.4824999118
 C         -3.6595234627        2.4919294080        2.1523774513
 H         -4.2217899688        3.1622914098        2.8062076415
 H         -2.8754165046        2.0175181509        2.7480532532
 C         -4.6050730954        1.3929051826        1.6505485874
 H         -5.5242599669        1.8340328803        1.2657298731
 H         -4.8521287274        0.7428255701        2.4933224620
 H         -4.6036669816        4.0045501360       -1.9645242748
 H         -3.0621861006        3.1853630045       -1.7064312757
 H         -5.7607743502        2.0818313787       -0.8090331321
 H         -4.9871761848        1.7068817716       -2.3594038884
 O         -3.3813381302        0.1179799380       -1.6575813094
 C         -2.5825555401       -0.9707604342       -1.3248677973
 O         -2.0350511777       -1.4997184342       -2.3117887583
 O         -3.1015262729       -0.9153809289        2.2555577949
 C         -1.6576492877       -2.5237428850        0.4727155974
 C         -0.2253157238       -2.1025340008        0.6802936014
 C          0.4152506937       -2.2952355629        1.8980349689
 C          1.7187684837       -1.8669001223        2.0835382617
 C          2.4076461943       -1.2384642057        1.0615898252
 C          1.7741278076       -1.0373228549       -0.1578804923
 C          0.4707819418       -1.4709502802       -0.3421423102
 H         -0.0180722750       -1.3083886183       -1.2921163281
 N          2.4646114713       -0.3852181503       -1.2024663424
 S          2.9020136880        1.2101298278       -0.8852251939
 O          1.9928442387        1.8265012123        0.0550425865
 O          3.0178783723        1.8456849219       -2.1797130853
 C          4.5226240112        1.0589500378       -0.1643339424
 C          5.5127516583        0.4574110393       -0.9166724577
 C          6.7803823745        0.3278769923       -0.3723148191
 C          7.0351985997        0.8013250673        0.9064569003
 C          6.0311186851        1.4060626269        1.6471079298
 C          4.7601882473        1.5379027255        1.1089287300
 H          3.9459296260        1.9944992373        1.6486342910
 H          6.2311032752        1.7737830377        2.6407015273
 H          8.0224644799        0.6984499666        1.3283826706
 H          7.5638575118       -0.1412953931       -0.9452274271
 H          5.2718064383        0.1075979312       -1.9066273992
 H          1.9617051965       -0.4238083357       -2.0790545587
 H          3.4216664255       -0.9003601466        1.2002520122
 H          2.2027738176       -2.0213528282        3.0356549906
 H         -0.1225273960       -2.7666499149        2.7075264622
 H         -2.0698564336       -2.7876815825        1.4594321918
 C         -1.8061468366       -3.7457522087       -0.4233453656
 C         -0.6988973439       -4.3066526234       -1.2599151964
 C         -1.1504339988       -5.0379009941       -0.0338373327
 H         -1.7049059973       -5.9566034406       -0.1492764347
 H         -0.4959179601       -5.0190512938        0.8245846991
 H         -0.9599076741       -4.7011578287       -2.2301578105
 H          0.2619937462       -3.8174863025       -1.2361774863
 H         -2.8033559023       -3.8149771652       -0.8462904230
