  62
        -98.93682216
 C          2.2190792360        1.0868867928       -0.0952768285
 C          3.2894659270        0.8755507419        0.8064994830
 C          4.2605255750       -0.1766079505        0.4565401424
 C          4.0532362107       -0.9103786257       -0.6515511832
 C          4.8911606187       -2.0295987597       -1.2166340831
 C          5.4347163423       -3.0621699481       -0.2171618489
 C          6.9460477923       -2.9642088439       -0.0006723409
 H          7.3131774163       -3.9349284781        0.3399005978
 H          7.4215617540       -2.7553648263       -0.9612882089
 C          7.3899975778       -1.9184185700        1.0206033602
 H          7.1257751732       -2.2586417379        2.0241682342
 H          8.4796849649       -1.8544469911        0.9755722809
 C          6.8077407402       -0.5184593958        0.8169224687
 H          7.4723696914        0.1946365899        1.3091178263
 H          6.7934535040       -0.2614281381       -0.2416700908
 C          5.4053291302       -0.3424358139        1.4184550913
 H          5.3803867861        0.5612523034        2.0351847828
 H          5.1815690470       -1.1725859901        2.0944313028
 H          4.9079474733       -2.9728497855        0.7315956598
 H          5.2156589667       -4.0546788557       -0.6144772185
 H          5.7173924396       -1.5904164723       -1.7816657348
 H          4.2451070237       -2.5240842250       -1.9458471879
 O          2.9887171091       -0.6932728046       -1.4761010050
 C          2.0573294686        0.3027163807       -1.2362046306
 O          1.1639573014        0.3789650070       -2.1024022638
 O          3.4363635889        1.5479025059        1.8622264067
 C          1.2138349735        2.1795714811        0.2306778392
 C         -0.1005841080        1.5293886583        0.5836263872
 C         -0.2958374484        1.0452892862        1.8744347089
 C         -1.4650487086        0.3908872321        2.2128109751
 C         -2.4603327575        0.1959689043        1.2703756027
 C         -2.2662904798        0.6570005729       -0.0241350516
 C         -1.1002031598        1.3347948456       -0.3562430997
 H         -0.9578590811        1.6761941010       -1.3692099290
 N         -3.2639649057        0.4566236569       -0.9930891340
 S         -3.9839030626       -1.0548787950       -1.1014518135
 O         -3.0958253676       -2.1110579458       -0.6730545563
 O         -4.4801474952       -1.1409463090       -2.4579430881
 C         -5.3720038391       -0.9344266561        0.0098395576
 C         -6.2224882606        0.1458621517       -0.1229461870
 C         -7.3133312846        0.2471187573        0.7255052690
 C         -7.5367728804       -0.7294014797        1.6847906103
 C         -6.6760605757       -1.8097140361        1.8031891513
 C         -5.5820955810       -1.9162173301        0.9582076109
 H         -4.8819990935       -2.7344726595        1.0182120095
 H         -6.8508840190       -2.5683019752        2.5491933267
 H         -8.3865149373       -0.6480742437        2.3440699942
 H         -7.9844459126        1.0861689220        0.6366845568
 H         -6.0149151378        0.8816792134       -0.8816507889
 H         -3.0031415983        0.7927350359       -1.9092889916
 H         -3.3695800472       -0.3240367565        1.5239814639
 H         -1.6044992387        0.0253724783        3.2188383909
 H          0.4897725021        1.1784029585        2.6050665982
 H          1.6036865519        2.6703693925        1.1324030024
 C          1.1119445166        3.2067174329       -0.8773526852
 C          0.4419237064        4.5183091660       -0.6001330622
 C          1.9271055058        4.4606168284       -0.7895923790
 H          2.3486677049        4.8641741645       -1.6980321833
 H          2.5591337579        4.5854570185        0.0772910181
 H         -0.1587509731        4.9653463317       -1.3773473711
 H          0.0639945205        4.6809416555        0.3977132883
 H          0.9864881478        2.7692398244       -1.8603882437
