  62
        -98.93573482
 C         -1.9511305481       -1.2953490926       -0.1173502535
 C         -3.0677386328       -1.1390940482        0.7438248327
 C         -4.2648115785       -0.4956288222        0.1793890766
 C         -4.2516674490       -0.0982883025       -1.1039992992
 C         -5.3606963176        0.5342941850       -1.9070818109
 C         -6.2047161176        1.6162574422       -1.2208199043
 C         -5.4419490146        2.4940774274       -0.2177747449
 H         -4.3678147797        2.3233289800       -0.3104306419
 H         -5.6252276414        3.5441168727       -0.4535444855
 C         -5.8720794550        2.2562478897        1.2317736295
 H         -5.5863564879        3.1252199236        1.8294998825
 H         -6.9611076543        2.1801438486        1.2658634101
 C         -5.2631412799        1.0257562320        1.9030941867
 H         -4.1960620422        1.1891758221        2.0782253389
 H         -5.7333549095        0.9102825275        2.8826009791
 C         -5.4114451450       -0.2933923487        1.1274564240
 H         -6.3702504173       -0.3452013659        0.6173228879
 H         -5.3545955118       -1.1140440231        1.8477275393
 H         -6.6175272897        2.2431495355       -2.0131265384
 H         -7.0508934062        1.1531119045       -0.7153759883
 H         -6.0208108212       -0.2632073588       -2.2608472003
 H         -4.8689002195        0.9572466306       -2.7865775610
 O         -3.1587286748       -0.2651410427       -1.8985088281
 C         -1.9853814854       -0.8486016250       -1.4376533794
 O         -1.0854280400       -0.8930637523       -2.2978842429
 O         -3.0694729092       -1.5405982676        1.9379189222
 C         -0.7290487827       -1.9773189526        0.4726660506
 C          0.2784329984       -0.9774474887        0.9795880937
 C          0.8160366216       -1.0891372861        2.2564819166
 C          1.7512133594       -0.1748446459        2.7106978461
 C          2.1724353049        0.8641099374        1.9007604765
 C          1.6435738299        0.9821711866        0.6213800879
 C          0.7053370389        0.0655749705        0.1688087512
 H          0.3016648462        0.1603581252       -0.8285401748
 N          2.0742288641        2.0257266859       -0.2174436702
 S          3.7268961700        2.2648326938       -0.3505689714
 O          4.1933193795        3.0228755017        0.7839441734
 O          3.9234769824        2.8787268320       -1.6444013190
 C          4.4327063666        0.6271209325       -0.3140332419
 C          4.1259769641       -0.2338679612       -1.3492599665
 C          4.6232529697       -1.5265977019       -1.3155424126
 C          5.4107829856       -1.9352121991       -0.2500488663
 C          5.7140465021       -1.0572812047        0.7788026198
 C          5.2202576075        0.2371896941        0.7500084507
 H          5.4311083006        0.9519230318        1.5285071288
 H          6.3288664562       -1.3772359242        1.6044539913
 H          5.7888125144       -2.9448380951       -0.2241801613
 H          4.3861938910       -2.2108409461       -2.1142497403
 H          3.5108450736        0.1150199267       -2.1641260823
 H          1.6362546270        2.0141360051       -1.1271534829
 H          2.8935300168        1.5902037741        2.2392043461
 H          2.1556501953       -0.2704834857        3.7065190799
 H          0.4850943962       -1.8913099464        2.8994520637
 H         -1.1159101206       -2.5244006037        1.3468146261
 C         -0.1138995316       -3.0075772367       -0.4658380999
 C          1.1867754568       -2.8145521054       -1.1795425917
 C          1.0974721869       -3.7855475445       -0.0433450702
 H          1.1327830161       -4.8427528341       -0.2573242104
 H          1.5668830485       -3.5036612905        0.8869117663
 H          1.2605857033       -3.1920261492       -2.1879218764
 H          1.7262726473       -1.8945917002       -1.0198538687
 H         -0.8783897901       -3.5551601701       -1.0087156564
