  62
        -98.94064001
 C         -2.5644984475       -1.4074794049        0.2072695365
 C         -2.7956889341       -0.5459589558       -0.8930414746
 C         -3.7488269297        0.5519944989       -0.6609294660
 C         -4.3254990898        0.6905986670        0.5457189877
 C         -5.2767729565        1.7873057307        0.9258084512
 C         -4.5345289240        2.9884449490        1.5274291015
 C         -3.3394096662        3.4562098252        0.6965832625
 H         -2.9152281583        4.3287992335        1.1984187226
 H         -2.5696209611        2.6801329221        0.7064644897
 C         -3.6782605778        3.8173086361       -0.7565343141
 H         -4.7512187549        3.9855408297       -0.8559806889
 H         -3.1773841373        4.7543839656       -1.0088553944
 C         -3.2295517719        2.7818514846       -1.7894962138
 H         -3.3125109530        3.2343390459       -2.7813875104
 H         -2.1749857362        2.5409310377       -1.6284106583
 C         -4.0297171031        1.4730924118       -1.8151826707
 H         -3.7384918753        0.9239446175       -2.7154217977
 H         -5.0964272967        1.6967901803       -1.8790834910
 H         -5.2434921569        3.8104485920        1.6414981076
 H         -4.1720343062        2.7111432533        2.5199521941
 H         -5.9732726818        1.3939895340        1.6681905426
 H         -5.8359646653        2.0968101813        0.0449880349
 O         -4.0690526153       -0.1453907547        1.5834688667
 C         -3.1864950451       -1.2016881117        1.4429261008
 O         -3.0461742827       -1.8887176235        2.4742774330
 O         -2.2488889286       -0.6675629575       -2.0207557743
 C         -1.6359977003       -2.6117454228        0.1438030262
 C         -0.2083921971       -2.1969636505        0.3901242874
 C          0.5360717140       -2.7583222509        1.4203191659
 C          1.8390316134       -2.3505769996        1.6493763501
 C          2.4252304555       -1.3803201218        0.8564047427
 C          1.6863234164       -0.8070098550       -0.1704444476
 C          0.3812545627       -1.2172961945       -0.3978014891
 H         -0.1913231060       -0.7706682574       -1.1977800690
 N          2.2726791482        0.1787440919       -0.9862472480
 S          2.9598124557        1.5048788565       -0.2165506596
 O          2.3324016677        1.7570831643        1.0608900024
 O          2.9076691385        2.5794874239       -1.1835350116
 C          4.6568384103        1.0187254844        0.0174886171
 C          5.2099863185        1.0275987508        1.2828681371
 C          6.5345368579        0.6484350746        1.4377675329
 C          7.2781979739        0.2701486249        0.3304597462
 C          6.7083653557        0.2692233989       -0.9341643719
 C          5.3853590323        0.6479767648       -1.0959523708
 H          4.9056870592        0.6645601390       -2.0603383716
 H          7.2897645535       -0.0255205316       -1.7928671748
 H          8.3080976671       -0.0254447948        0.4538052374
 H          6.9791145829        0.6489710194        2.4200426664
 H          4.5912062939        1.3238372810        2.1150509144
 H          1.6660699490        0.4820168789       -1.7355271753
 H          3.4391536788       -1.0588007752        1.0303922165
 H          2.4050374606       -2.7936031540        2.4544952894
 H          0.0804376111       -3.5055998647        2.0535339357
 H         -1.9445980223       -3.2495255736        0.9866244172
 C         -1.8189834911       -3.4266305715       -1.1313192472
 C         -0.7555706757       -3.6077621098       -2.1690527957
 C         -1.1240509325       -4.7488158719       -1.2727018459
 H         -1.6723728538       -5.5818291071       -1.6855663043
 H         -0.4211682867       -5.0204361261       -0.4994011000
 H         -1.0684899510       -3.6337762125       -3.2018406065
 H          0.1991600527       -3.1298930996       -2.0168018183
 H         -2.8387695121       -3.3743155765       -1.4988808135
