  62
        -98.94493931
 C         -2.2112776498       -0.8043993901       -0.1189717314
 C         -3.0550713398       -0.5325462911        0.9910234289
 C         -3.8847897799        0.6748574690        0.9044666999
 C         -3.7832781399        1.4622561699       -0.1814057594
 C         -4.6022329300        2.6950282301       -0.4291120183
 C         -5.8871129000        2.3624732807       -1.2008628286
 C         -6.6746811099        1.1912936201       -0.6133939896
 H         -7.5741440599        1.0676970306       -1.2203144297
 H         -6.0862841198        0.2772179403       -0.7207814004
 C         -7.0711461599        1.3679218188        0.8590320105
 H         -6.9990507299        2.4196187586        1.1384510714
 H         -8.1153306899        1.0715258687        0.9783918803
 C         -6.2543158698        0.5259913180        1.8410004598
 H         -6.2472136398       -0.5161271117        1.5121137989
 H         -6.7526192398        0.5591781572        2.8134288998
 C         -4.8027487499        0.9727101779        2.0565646802
 H         -4.7771332599        2.0362527377        2.3027621311
 H         -4.4050754098        0.4133539172        2.9083176197
 H         -6.5168867100        3.2537304007       -1.2218388978
 H         -5.6175187500        2.1124344016       -2.2296123388
 H         -4.8477061500        3.1585845993        0.5244854421
 H         -4.0039416700        3.3925848306       -1.0179650777
 O         -2.9444182599        1.1895496808       -1.2109207296
 C         -2.1444698998        0.0556344909       -1.2148963206
 O         -1.4461467998       -0.0487858882       -2.2441792407
 O         -3.1149773397       -1.2751648119        2.0067397182
 C         -1.3608006397       -2.0628931101       -0.0370514525
 C          0.0563413603       -1.7072135003        0.3445337678
 C          0.5303807503       -1.9640286714        1.6261366376
 C          1.8166526003       -1.6036650016        1.9873447879
 C          2.6538706302       -0.9766729408        1.0817426684
 C          2.1839743802       -0.7021160097       -0.1956571113
 C          0.8996178502       -1.0782085395       -0.5603043416
 H          0.5352888302       -0.8416057087       -1.5486505714
 N          3.0199004202       -0.0491053089       -1.1211835108
 S          3.7259119301        1.3947963607       -0.6297374795
 O          2.9403188501        2.0511821898        0.3905294710
 O          3.9589205300        2.1433599418       -1.8457559389
 C          5.2958471301        0.8831312902        0.0388776700
 C          5.6401798501        1.2192811791        1.3333411403
 C          6.8709817101        0.8134542888        1.8260447199
 C          7.7308566502        0.0836579295        1.0197189793
 C          7.3711563002       -0.2433059894       -0.2794097310
 C          6.1429803802        0.1600398010       -0.7781525606
 H          5.8260366402       -0.0688612382       -1.7819027908
 H          8.0424610602       -0.8104926888       -0.9038537015
 H          8.6871978802       -0.2318276208        1.4059988790
 H          7.1526081601        1.0676909279        2.8352770902
 H          4.9369559901        1.7839813186        1.9247944008
 H          2.5847331002        0.0683757819       -2.0258445607
 H          3.6545412202       -0.6868801510        1.3580947987
 H          2.1708848203       -1.8110634525        2.9855807777
 H         -0.1263243097       -2.4323587921        2.3449865672
 H         -1.7920743997       -2.6431491208        0.7896087770
 C         -1.4148185697       -2.9069828390       -1.2946650832
 C         -1.0106475396       -4.3477644790       -1.2174181344
 C         -2.4511154896       -3.9826000590       -1.4106790441
 H         -2.9053019496       -4.1570583281       -2.3745902043
 H         -3.1278559896       -4.1167615497       -0.5793683442
 H         -0.4724647496       -4.7765593983       -2.0486142848
 H         -0.7100857396       -4.7296168899       -0.2535850248
 H         -1.1678411197       -2.3609156182       -2.1956153827
