  62
        -98.94125634
 C         -2.4881940529       -1.2546241735        0.1029835136
 C         -2.9518120122       -0.3955575631        1.1335561155
 C         -3.6069306053        0.8469872731        0.7089491513
 C         -3.7399507740        1.1005599601       -0.6050822372
 C         -4.3380439371        2.3491316742       -1.1839818558
 C         -3.2626762037        3.4144140869       -1.4390958850
 C         -2.3359489560        3.6599578694       -0.2478243999
 H         -1.7253099565        2.7693931250       -0.0756617012
 H         -1.6472628453        4.4589014238       -0.5326091748
 C         -3.0580676763        4.0449388714        1.0512491360
 H         -2.5237743885        4.8787856896        1.5112034644
 H         -4.0673902815        4.3908355176        0.8248214245
 C         -3.1252411117        2.9292692987        2.0959463904
 H         -2.1266584188        2.5093407990        2.2438324009
 H         -3.4401639751        3.3710008732        3.0450934037
 C         -4.0909324888        1.7792464998        1.7830634131
 H         -5.0740759026        2.1817706669        1.5311524781
 H         -4.1875746473        1.1704432367        2.6866568874
 H         -2.6493582993        3.0948317026       -2.2852564063
 H         -3.7596210003        4.3471144870       -1.7127693071
 H         -5.0911762519        2.7351269805       -0.4998199558
 H         -4.8157925597        2.0947052113       -2.1317249118
 O         -3.2977363306        0.2517493374       -1.5655348072
 C         -2.6362709323       -0.9284784225       -1.2449016870
 O         -2.2532135469       -1.5671328391       -2.2444290073
 O         -2.8271509504       -0.6656048822        2.3579606423
 C         -1.7722297580       -2.5183682567        0.5507612901
 C         -0.2958582657       -2.2408533396        0.6748780132
 C          0.3964877955       -2.4972434712        1.8516861943
 C          1.7396657127       -2.1795770694        1.9626233903
 C          2.4153426054       -1.5927761887        0.9072923909
 C          1.7305576539       -1.3325430646       -0.2722717332
 C          0.3908695303       -1.6640778769       -0.3854105208
 H         -0.1347054042       -1.4543839673       -1.3063641585
 N          2.4050297581       -0.6901744676       -1.3403537236
 S          2.6511415061        0.9559356497       -1.0562531904
 O          1.5970769346        1.5086355963       -0.2342585886
 O          2.8319920311        1.5567110468       -2.3599095613
 C          4.1966355007        0.9821535156       -0.1746451147
 C          5.3335458930        0.5775806161       -0.8471502953
 C          6.5438973317        0.5750871234       -0.1726109664
 C          6.5958053446        0.9747979820        1.1547881638
 C          5.4454863441        1.3796652206        1.8147505548
 C          4.2310906594        1.3843044928        1.1458443626
 H          3.3094611263        1.6848005742        1.6181715918
 H          5.4875998938        1.6894302098        2.8465732358
 H          7.5386535881        0.9707374068        1.6785266888
 H          7.4406406737        0.2613198649       -0.6821489010
 H          5.2459054916        0.2801022461       -1.8787536427
 H          1.9061248464       -0.7865915162       -2.2154806617
 H          3.4585777507       -1.3343093280        0.9885351239
 H          2.2637220370       -2.3829409651        2.8837588235
 H         -0.1313521928       -2.9279624986        2.6898569483
 H         -2.1578908605       -2.7138137168        1.5638234417
 C         -2.0906166057       -3.7374696405       -0.3022916376
 C         -1.0903979624       -4.4159667024       -1.1852335322
 C         -1.5368603417       -5.0781057622        0.0814061741
 H         -2.1805109214       -5.9420766551        0.0181654189
 H         -0.8349221037       -5.1058952137        0.9011972256
 H         -1.4417564803       -4.8019862206       -2.1299452890
 H         -0.0888199330       -4.0175416008       -1.2266660569
 H         -3.1125151601       -3.7185231554       -0.6668675592
