  62
        -98.94558254
 C         -2.3331550443       -0.2326124037        0.1210997466
 C         -1.5544629510        0.3788931904       -0.8858907823
 C         -1.4185933353        1.8447990178       -0.8225062512
 C         -1.9632090314        2.5099387670        0.2131731553
 C         -2.0178677957        3.9886860012        0.5360702063
 C         -1.1691891290        4.9906820857       -0.2405628776
 C          0.3315215618        4.8918286606        0.0282030783
 H          0.8446029816        5.5908026931       -0.6364084041
 H          0.5226895497        5.2083806713        1.0567696540
 C          0.9424081254        3.5037126910       -0.1474574147
 H          2.0128634803        3.5787397219        0.0679247743
 H          0.5283506295        2.8102235174        0.5880140329
 C          0.7914331358        2.8983182823       -1.5408232729
 H          1.1683877104        3.5995170543       -2.2885379258
 H          1.4193613808        2.0043663306       -1.5714111683
 C         -0.6364009150        2.4830684315       -1.9360188693
 H         -0.5590158060        1.7265432562       -2.7225893890
 H         -1.1895964898        3.3251878495       -2.3471817013
 H         -1.3726908664        4.9132461131       -1.3043800602
 H         -1.4953740742        5.9856100674        0.0747040722
 H         -1.7786619466        4.0680865292        1.6016922735
 H         -3.0715932246        4.2727109223        0.4353845370
 O         -2.6600963905        1.8668929304        1.1967848748
 C         -2.8623640754        0.4999355001        1.1798571559
 O         -3.5211793752        0.0619121424        2.1467632765
 O         -1.0024168765       -0.2702117668       -1.8140353870
 C         -2.5312603554       -1.7382636873        0.1188381430
 C         -1.1867328854       -2.4237813332        0.1630421538
 C         -0.8528761362       -3.5225595609       -0.6187758141
 C          0.4131002077       -4.0780638633       -0.5418719647
 C          1.3763291085       -3.5377919401        0.2908620642
 C          1.0479204155       -2.4444940787        1.0840791599
 C         -0.2333798174       -1.9207925696        1.0388695769
 H         -0.4768606624       -1.0749977159        1.6653494266
 N          1.9957749532       -1.8319762782        1.9306602846
 S          2.3684173310       -0.2270740084        1.6128626776
 O          3.4120326524        0.1079361633        2.5585003142
 O          1.1756022586        0.5763000904        1.6689453210
 C          3.0578128976       -0.2556664978       -0.0329314903
 C          2.2237041307       -0.4367355081       -1.1183798289
 C          2.7868322323       -0.5328895591       -2.3826139143
 C          4.1607360366       -0.4458414989       -2.5412155481
 C          4.9843045379       -0.2625662565       -1.4402622285
 C          4.4302696308       -0.1731395167       -0.1738451966
 H          5.0294331111       -0.0321532227        0.7112518983
 H          6.0529924963       -0.1928199995       -1.5640525143
 H          4.5901987103       -0.5204810080       -3.5277879290
 H          2.1354165083       -0.6730540290       -3.2304417946
 H          1.1550766973       -0.4945538521       -0.9823853802
 H          2.8544640575       -2.3571720949        2.0271558122
 H          2.3724053723       -3.9525638688        0.3276482465
 H          0.6591720931       -4.9312794350       -1.1552487348
 H         -1.5817585116       -3.9396116576       -1.2941512501
 H         -3.0682624878       -1.9748820403        1.0495219531
 C         -3.3836658419       -2.1577608229       -1.0608907637
 C         -4.2630058694       -3.3674243710       -0.9663958468
 C         -4.8704572825       -1.9976841724       -0.9708122088
 H         -5.4087696581       -1.6722416243       -1.8482134144
 H         -5.2703308458       -1.6091899517       -0.0450927314
 H         -4.3894761675       -3.9836220107       -1.8437677304
 H         -4.2613733318       -3.9159602292       -0.0365497041
 H         -2.9135651164       -1.9365797844       -2.0120589177
