  62
        -98.94232931
 C         -1.8884487978       -0.5923714896        0.0649882307
 C         -2.9533055096       -0.5016645463        1.0001611263
 C         -4.0526856573        0.4045432693        0.6542165795
 C         -3.9972050268        1.1101475964       -0.4893966680
 C         -5.0262043005        2.0942244980       -0.9759189867
 C         -6.2079018063        1.4508257094       -1.7145252309
 C         -7.1926561425        0.6879310374       -0.8274870720
 H         -8.0761822877        0.4808809234       -1.4346303529
 H         -7.5076981504        1.3279265095       -0.0027189244
 C         -6.6515050508       -0.6382762425       -0.2753004668
 H         -5.7750100712       -0.9421609221       -0.8522212227
 H         -7.4042914968       -1.4196003503       -0.4017503297
 C         -6.2794706495       -0.6034929138        1.2070572392
 H         -5.8735695974       -1.5803423033        1.4818632622
 H         -7.1762752379       -0.4309482779        1.8061854538
 C         -5.2367121857        0.4613152788        1.5714346938
 H         -4.8812295544        0.2610988404        2.5851702211
 H         -5.6877788596        1.4532851549        1.5488093895
 H         -5.8165676217        0.7815360255       -2.4842093104
 H         -6.7522960745        2.2531994001       -2.2179074820
 H         -4.5122356671        2.7653886364       -1.6675784962
 H         -5.3974146511        2.6808062356       -0.1348864136
 O         -2.9498282890        1.0185466618       -1.3483376086
 C         -1.8776909420        0.1652588420       -1.1066385324
 O         -1.0106780623        0.1991898372       -2.0002555381
 O         -2.9824378426       -1.1562850114        2.0760554949
 C         -0.7682908504       -1.5587914816        0.4095066733
 C          0.3850061896       -0.8587304015        1.0806283410
 C          0.9023319421       -1.3279080175        2.2821628651
 C          1.9728788103       -0.6910049621        2.8862631199
 C          2.5529864172        0.4201976000        2.3015690885
 C          2.0454326824        0.8946249381        1.0985666424
 C          0.9682175103        0.2587751682        0.4983384341
 H          0.5769208468        0.6338359653       -0.4360695706
 N          2.6384375206        2.0163080489        0.4835706019
 S          4.2778793383        1.9055681964        0.1479216838
 O          5.0183820848        2.0216037943        1.3789273846
 O          4.5377332344        2.9168122126       -0.8508433144
 C          4.4856138097        0.2747612960       -0.5409069775
 C          4.1983203905        0.0895978515       -1.8787684109
 C          4.2804046716       -1.1864791666       -2.4118997941
 C          4.6312006139       -2.2527289066       -1.5979201609
 C          4.9158130649       -2.0501572446       -0.2565837743
 C          4.8448120815       -0.7748332802        0.2808452522
 H          5.0668242194       -0.5752821412        1.3158719347
 H          5.1887516495       -2.8810955491        0.3734693428
 H          4.6808232562       -3.2468874562       -2.0123879069
 H          4.0600459214       -1.3451756167       -3.4551863856
 H          3.9262340715        0.9438372868       -2.4782502566
 H          2.1410217456        2.3158511880       -0.3433359636
 H          3.3894165066        0.9277569036        2.7542408672
 H          2.3592649258       -1.0623449595        3.8230243330
 H          0.4501246652       -2.1899792891        2.7499739929
 H         -1.2140171460       -2.2392246126        1.1521438434
 C         -0.3301168721       -2.4126267357       -0.7735689084
 C          0.9676943066       -2.2381120751       -1.4971009208
 C          0.7651796240       -3.4247317219       -0.6070085963
 H          0.6424412214       -4.3982480528       -1.0562183762
 H          1.2916662814       -3.4322270060        0.3353191802
 H          0.9630126787       -2.3785319802       -2.5669342325
 H          1.6410242469       -1.4630768388       -1.1674702431
 H         -1.1782464907       -2.7100151334       -1.3829463575
