  62
        -98.94583290
 C         -1.0770229112       -1.2725360268       -0.0593117102
 C         -1.7733081497       -0.5860676329        0.9701067764
 C         -2.5956755694        0.5588728755        0.5593720939
 C         -2.6172696237        0.9155917603       -0.7373258041
 C         -3.4305719528        2.0425548838       -1.3038211698
 C         -4.8074613549        1.5530807819       -1.7741046369
 C         -5.5427277056        0.6956702154       -0.7436796650
 H         -6.5115614688        0.4319676999       -1.1733640991
 H         -4.9917920143       -0.2365549903       -0.5990057882
 C         -5.7542646218        1.3766820543        0.6157994349
 H         -5.6312346009        2.4553153313        0.5120141142
 H         -6.7815678145        1.1973639692        0.9397571516
 C         -4.8400480776        0.8663176744        1.7312027681
 H         -4.8880632199       -0.2246246452        1.7731629309
 H         -5.2205848959        1.2474520535        2.6824554306
 C         -3.3667102253        1.2811568299        1.6293207632
 H         -3.3018597748        2.3629101771        1.4922872715
 H         -2.8839130560        1.0191714240        2.5756176313
 H         -5.4152969006        2.4236105140       -2.0275791723
 H         -4.6718598168        0.9583073296       -2.6805655691
 H         -3.5473265646        2.8159268372       -0.5468533170
 H         -2.8912109197        2.4604343899       -2.1560062638
 O         -1.9246660347        0.2503452604       -1.6948631589
 C         -1.1510784097       -0.8671177446       -1.3932203530
 O         -0.6111392933       -1.3757637767       -2.3940800764
 O         -1.7127936544       -0.9234193183        2.1822603175
 C         -0.2360210296       -2.4554083733        0.3847189109
 C          1.1864794200       -2.0434259228        0.6867673731
 C          1.7963956360       -2.4424185751        1.8708306799
 C          3.1038115764       -2.0862057651        2.1463296732
 C          3.8196501062       -1.3075490677        1.2554517596
 C          3.2180696852       -0.8981201156        0.0711163036
 C          1.9132248169       -1.2763782002       -0.2128928843
 H          1.4693725710       -0.9654205130       -1.1460747657
 N          3.9166478339       -0.0886802402       -0.8437343767
 S          3.1634820426        1.3025868138       -1.3934972701
 O          2.1870946183        0.9904194623       -2.4032116753
 O          4.2550867737        2.1585273655       -1.8089589352
 C          2.3794199324        1.9796317227        0.0578841308
 C          3.1762733858        2.5941721575        1.0045862885
 C          2.5917254013        3.0681001473        2.1671775921
 C          1.2280413933        2.9123311966        2.3662667114
 C          0.4414955520        2.2963798444        1.4056137471
 C          1.0211202853        1.8235454614        0.2389485374
 H          0.4403162841        1.3379196246       -0.5298031787
 H         -0.6177583044        2.1653178643        1.5589997320
 H          0.7710083228        3.2731643946        3.2740043101
 H          3.1981912159        3.5526850428        2.9150973687
 H          4.2300162437        2.7046288114        0.8062612755
 H          4.8658388739        0.1174161864       -0.5645712780
 H          4.8365561493       -1.0171675143        1.4707235405
 H          3.5658649438       -2.4058101658        3.0675381474
 H          1.2334257892       -3.0275574565        2.5822868096
 H         -0.6874926049       -2.7912242634        1.3288731570
 C         -0.2347931323       -3.6226768369       -0.5830598674
 C          0.0180595342       -5.0044458145       -0.0619779771
 C         -1.3512825641       -4.6203087432       -0.5347936610
 H         -1.7151965530       -5.0283926535       -1.4656619148
 H         -2.1230907306       -4.4701388331        0.2062163820
 H          0.6000914126       -5.6818461891       -0.6675749401
 H          0.1706473990       -5.1216527199        0.9999555848
 H          0.1643243466       -3.3703866573       -1.5570110990
