  62
        -98.93714109
 C          2.5641168428        0.8242939221        0.0685702029
 C          3.0278817168       -0.1655827818        0.9630857322
 C          3.2465511634       -1.5115691870        0.4053766304
 C          2.9690184749       -1.7406793532       -0.8920630364
 C          3.1096960030       -2.9903440426       -1.7363556146
 C          3.3456224761       -4.3512999213       -1.0866021422
 C          2.1647962896       -4.8849954018       -0.2761774269
 H          1.3562824137       -5.1381964441       -0.9667306286
 H          2.4794226814       -5.8048525257        0.2215374007
 C          1.5917605103       -3.9275594002        0.7659081331
 H          1.1791000803       -3.0470242036        0.2671847033
 H          0.7565016666       -4.4327705813        1.2589932763
 C          2.5704983065       -3.4804665487        1.8502529906
 H          3.0092105940       -4.3566576052        2.3314260569
 H          1.9982048730       -2.9352163190        2.6058505429
 C          3.7081837128       -2.5590086795        1.3779245133
 H          4.5336145686       -3.1310135546        0.9616998806
 H          4.0883192354       -2.0194789937        2.2503613501
 H          4.2463311141       -4.3283969631       -0.4803613127
 H          3.5300396654       -5.0561253180       -1.9018530496
 H          2.2009482310       -3.0369041496       -2.3456656039
 H          3.9342357812       -2.7885872902       -2.4291069514
 O          2.5139087024       -0.7513503241       -1.7172705120
 C          2.2861773318        0.5377779466       -1.2668629408
 O          1.8500801835        1.3172246701       -2.1354169045
 O          3.2482965683        0.0620378877        2.1840492299
 C          2.2831633043        2.2229708498        0.5875890343
 C          0.8257837537        2.5509782121        0.3719132773
 C          0.3754463299        3.7512549750       -0.1610889700
 C         -0.9757450058        3.9597491197       -0.3817176448
 C         -1.9049843166        2.9827725631       -0.0758899632
 C         -1.4660150325        1.7865596604        0.4734846200
 C         -0.1160946693        1.5847771217        0.7038072497
 H          0.2184951365        0.6427469285        1.1235422677
 N         -2.4112323909        0.7719168487        0.7722029685
 S         -2.9728423810       -0.0821882051       -0.5786072891
 O         -2.1639380240       -1.2704855080       -0.7647952007
 O         -3.0743852574        0.8182936079       -1.6975795129
 C         -4.6046711193       -0.5462196865       -0.0311156055
 C         -5.5729955653        0.4375126173        0.0234282438
 C         -6.8404669182        0.1066202271        0.4739684905
 C         -7.1169394529       -1.1963291004        0.8616278314
 C         -6.1346410984       -2.1726581762        0.8015367464
 C         -4.8637499968       -1.8467667041        0.3531749154
 H         -4.0705653766       -2.5738086644        0.2851197743
 H         -6.3520853773       -3.1850684063        1.1018658269
 H         -8.1044912749       -1.4523584665        1.2116175012
 H         -7.6068949265        0.8632725451        0.5216633295
 H         -5.3145205037        1.4336352014       -0.2951480459
 H         -2.0222229154        0.0869291615        1.4082593764
 H         -2.9546181755        3.1241196425       -0.2726971551
 H         -1.3071467747        4.8941847560       -0.8084998435
 H          1.0850218281        4.5195586127       -0.4214477329
 H          2.4742211611        2.1799972144        1.6703830496
 C          3.2298390577        3.2255003938       -0.0369287461
 C          3.6157848079        4.4674839600        0.7081767649
 C          4.6117587783        3.3632142974        0.5257685018
 H          5.4334171788        3.5136791427       -0.1581271525
 H          4.8613096802        2.7503308121        1.3795545012
 H          3.7571495472        5.3802733312        0.1494606343
 H          3.1943645442        4.6113647273        1.6914436869
 H          3.1187775372        3.2837637584       -1.1140889473
