  62
        -98.93006491
 C         -2.4463791437       -0.5477081352       -0.1464664347
 C         -1.9239564503       -1.5478789062       -0.9946966889
 C         -1.0749968838       -2.5824122239       -0.3761060718
 C         -0.8771016838       -2.5421038068        0.9545944581
 C         -0.0246143371       -3.4453600002        1.8075912129
 C          1.4701884904       -3.1284166043        1.6751361700
 C          1.9771176615       -3.0465821904        0.2382420801
 H          1.4901700398       -2.2073968785       -0.2631250542
 H          3.0446207201       -2.8099880514        0.2787717585
 C          1.8104284597       -4.3192888657       -0.5905954606
 H          2.2806767650       -5.1528397363       -0.0643041574
 H          2.3572944133       -4.1622886748       -1.5235895324
 C          0.3736678410       -4.7118642744       -0.9523060357
 H          0.4291025556       -5.4012322932       -1.7996700054
 H         -0.1099032352       -5.2551366551       -0.1441706397
 C         -0.5089390136       -3.5476983151       -1.3894156035
 H          0.0324087261       -2.9360858208       -2.1217032512
 H         -1.3766624666       -3.9442908602       -1.9303675142
 H          2.0328969014       -3.8869783299        2.2233606577
 H          1.6506226857       -2.1562151442        2.1408713151
 H         -0.3264044865       -3.2683103017        2.8425742446
 H         -0.2183229957       -4.4882821846        1.5755106935
 O         -1.4513634253       -1.5902689741        1.7440579808
 C         -2.1826585755       -0.5405123057        1.2233413208
 O         -2.5528314656        0.2975909123        2.0663955824
 H         -0.6658156963        0.8998443684       -1.2385953150
 C         -1.0240997571        1.7719705902       -0.7103769667
 C         -2.3774843430        1.8656989249       -0.3897194823
 C         -2.7991289826        3.0136462476        0.2667449817
 C         -1.8882233105        3.9992787476        0.6172138734
 C         -0.5386818336        3.8585989749        0.3602303461
 C         -0.1035565762        2.7205207960       -0.3093931589
 N          1.2592824935        2.4897761919       -0.5842399872
 S          1.7721582108        0.8895426533       -0.3399251253
 O          1.5532828299        0.1461588583       -1.5559721999
 O          1.1806134508        0.3603186262        0.8661271915
 C          3.5244648791        1.1345085229       -0.1130122788
 C          4.0538372540        1.1174150526        1.1631102929
 C          5.4126424842        1.3366325766        1.3286622549
 C          6.2132858831        1.5723408639        0.2212452162
 C          5.6675978643        1.5856145427       -1.0540368979
 C          4.3105037584        1.3644497113       -1.2264879661
 H          3.8424790131        1.3539069652       -2.1969469636
 H          6.2936021077        1.7659150767       -1.9129224743
 H          7.2699357015        1.7435951527        0.3527567255
 H          5.8394109341        1.3224291034        2.3185625880
 H          3.3915611160        0.9239361464        1.9919793487
 H          1.8635884536        3.1398757384       -0.0986023249
 H          0.1687496383        4.6095525944        0.6777892933
 H         -2.2404082514        4.8805391740        1.1321748287
 H         -3.8282602148        3.1532388267        0.5433355060
 C         -3.1742405883        0.6389238707       -0.7712107252
 H         -3.0394147765        0.5008408676       -1.8584345698
 C         -4.6678297950        0.5207236123       -0.5215062325
 C         -5.3904436679        1.0103241095        0.6938084010
 C         -5.6564497449        1.6418400959       -0.6413453805
 H         -6.6003430712        1.4254269683       -1.1197892675
 H         -5.2894659264        2.6348219421       -0.8416768478
 H         -6.1507210633        0.3673817896        1.1136321726
 H         -4.8192155592        1.5343855193        1.4419798645
 H         -5.0055443168       -0.4397895829       -0.9062214538
 O         -2.1440685915       -1.5711978345       -2.2393060301
