  62
        -98.94042799
 C         -2.4406551271       -1.0904123158       -0.0291537198
 C         -2.4107850124        0.3002080250        0.2332909435
 C         -3.6990410950        0.9049372769        0.5966779813
 C         -4.7980439774        0.1344449310        0.6923656498
 C         -6.1763253536        0.6002591655        1.0766290125
 C         -6.9866274048        1.1804503341       -0.0905933141
 C         -6.5338326144        2.5583394311       -0.5749801636
 H         -7.3132747269        2.9365040459       -1.2393192738
 H         -6.4714355656        3.2389410674        0.2746139582
 C         -5.1990506146        2.5560137204       -1.3332685010
 H         -4.9608024735        1.5381321680       -1.6506147698
 H         -5.2931621507        3.1591856413       -2.2391309037
 C         -4.0177042600        3.1143151397       -0.5393742711
 H         -4.1837190929        4.1735213511       -0.3301886514
 H         -3.1187512003        3.0306382173       -1.1560121462
 C         -3.7489428525        2.3908422184        0.7868240328
 H         -2.7722731835        2.7096860085        1.1599485643
 H         -4.5087796576        2.6567637348        1.5214754958
 H         -6.9553686163        0.4734226915       -0.9226690314
 H         -8.0245578066        1.2587525336        0.2407827050
 H         -6.7040187915       -0.2755985881        1.4599776081
 H         -6.1037515459        1.3398255613        1.8743958637
 O         -4.7758543753       -1.2057536370        0.4631826396
 C         -3.6084144865       -1.8452412720        0.0792939373
 O         -3.7347916114       -3.0702586489       -0.1213241524
 H          1.4512283020       -0.9822438580       -0.7685658673
 C          1.1875397615       -1.1844534138        0.2550156526
 C         -0.0917437052       -1.6023196580        0.5853090508
 C         -0.3874075258       -1.8593641147        1.9218993662
 C          0.5671242456       -1.6772967949        2.9028377012
 C          1.8349817252       -1.2318082554        2.5721457576
 C          2.1460612521       -0.9871962893        1.2403023681
 N          3.4474453623       -0.5852062839        0.8809169811
 S          3.6780142690        0.6337132837       -0.2652187709
 O          3.0855170759        1.8732047770        0.1880863735
 O          3.2672317746        0.1568219621       -1.5603033878
 C          5.4573139364        0.7524217131       -0.2125429427
 C          6.0578704825        1.8004730155        0.4581293671
 C          7.4420607033        1.8614566959        0.5049967162
 C          8.1975586832        0.8769996570       -0.1135328920
 C          7.5802816776       -0.1692141052       -0.7833782375
 C          6.1972574727       -0.2347940309       -0.8354662941
 H          5.6740195032       -1.0228760053       -1.3511356566
 H          8.1711082915       -0.9317404904       -1.2647457687
 H          9.2743056001        0.9265874260       -0.0754764744
 H          7.9246958806        2.6749885799        1.0222869838
 H          5.4299641276        2.5469344928        0.9177039675
 H          4.0114644950       -0.3786583523        1.6957434580
 H          2.5778102756       -1.0771672564        3.3404060991
 H          0.3209738672       -1.8741683541        3.9356535572
 H         -1.3831535022       -2.1951505631        2.1801929715
 C         -1.1710610199       -1.8080002851       -0.4494837392
 H         -1.4204497557       -2.8792710137       -0.4764569592
 C         -0.7649976448       -1.3686533287       -1.8407535111
 C         -0.0047698139       -2.2996603768       -2.7349116098
 C         -1.4409020797       -1.9863717797       -3.0263194113
 H         -1.6725414349       -1.3578907669       -3.8732118399
 H         -2.1816700378       -2.7483967717       -2.8308322746
 H          0.7564697167       -1.8839758881       -3.3780092574
 H          0.2306538579       -3.2798682023       -2.3486288547
 H         -0.5325863817       -0.3100829092       -1.8932941241
 O         -1.3663246962        1.0015341947        0.1721887962
