  62
        -98.94031527
 C         -1.7888769062       -0.6841462263        0.9149169627
 C         -2.0380619764       -0.3053472150       -0.4275008609
 C         -3.4362022242       -0.4188699647       -0.8743431503
 C         -4.3734585237       -0.8653994844       -0.0197808150
 C         -5.8376045680       -0.9762980237       -0.3298222143
 C         -6.5839647726        0.3082880597        0.0566536047
 C         -5.9236974388        1.5860854705       -0.4615561024
 H         -6.5536096361        2.4242942434       -0.1555916990
 H         -4.9574996448        1.7142777760        0.0320480928
 C         -5.7229341794        1.6258424046       -1.9829347981
 H         -6.3678439352        0.8875026349       -2.4608624559
 H         -6.0277861126        2.6081859138       -2.3499468346
 C         -4.2787406719        1.4087840986       -2.4390516363
 H         -3.6152913606        2.0837606462       -1.8921033483
 H         -4.2138928548        1.6739725841       -3.4976740724
 C         -3.7390752190       -0.0193910628       -2.2910568728
 H         -4.4327003879       -0.7252758157       -2.7522523307
 H         -2.7869218333       -0.0704309259       -2.8270006607
 H         -7.6044758193        0.2431734656       -0.3250790048
 H         -6.6321538217        0.3660206454        1.1466310066
 H         -5.9653648467       -1.1781938116       -1.3914405150
 H         -6.2485696936       -1.8101518978        0.2418674404
 O         -4.0962435881       -1.2204302326        1.2612425453
 C         -2.8102926640       -1.1147912664        1.7653172506
 O         -2.7058677651       -1.4251547744        2.9689366265
 H          2.0305441553       -0.0726329322        0.3021009688
 C          1.4804824161        0.8202665326        0.5447293928
 C          0.2347129183        0.7357824325        1.1436661393
 C         -0.4519378440        1.9165429295        1.4187235226
 C          0.0857321970        3.1426585610        1.0828244389
 C          1.3357529506        3.2219579212        0.4928380874
 C          2.0351799684        2.0527881495        0.2280340100
 N          3.3062082172        2.0865835175       -0.3673811922
 S          4.5113242064        1.1085996983        0.2603309351
 O          4.3485625776        0.9162790771        1.6831062123
 O          5.7478437648        1.7352013106       -0.1576628406
 C          4.3440891833       -0.4457270709       -0.5908414984
 C          4.1971195343       -0.4405750179       -1.9636441353
 C          4.1090013843       -1.6517733751       -2.6308089982
 C          4.1753664000       -2.8405636347       -1.9198976760
 C          4.3265479820       -2.8287779738       -0.5415736138
 C          4.4126089679       -1.6203500754        0.1318634985
 H          4.5213736013       -1.5640988198        1.2034488205
 H          4.3755764633       -3.7540259554        0.0105606623
 H          4.1058058536       -3.7820065327       -2.4418348670
 H          3.9877678277       -1.6660021075       -3.7019370222
 H          4.1502747982        0.5016560577       -2.4832666313
 H          3.6516583338        3.0120103724       -0.5766624161
 H          1.7619966321        4.1801647735        0.2361134188
 H         -0.4662751430        4.0473749506        1.2904102329
 H         -1.4243140611        1.8563724463        1.8901296681
 C         -0.4020727711       -0.5782101118        1.5254717429
 H         -0.5722052743       -0.5578890245        2.6154949517
 C          0.4924669809       -1.7781361663        1.2497618588
 C         -0.0880682975       -3.1339907886        0.9833369408
 C          0.6067686305       -2.3880896234       -0.1139462727
 H          1.5761436602       -2.7364704217       -0.4391636757
 H          0.0114617458       -1.9546657496       -0.9013281623
 H         -1.1644606077       -3.2200454140        0.9465109945
 H          0.4026453872       -3.9927060915        1.4161074959
 H          1.3961229151       -1.7540805887        1.8523335199
 O         -1.1533024534        0.1074164492       -1.2198548393
