  62
        -98.94688875
 C          1.2401864283        1.2159376740        0.0884869029
 C          1.9975914112        0.6951631404        1.1633099244
 C          2.6733557114       -0.5845910168        0.9116570316
 C          2.5073388272       -1.1920599346       -0.2778059758
 C          3.1893491978       -2.4641447445       -0.6890469471
 C          4.5235841892       -2.1745561910       -1.3912712852
 C          5.4240917626       -1.2006287259       -0.6315672132
 H          6.3483211501       -1.0974630309       -1.2042244970
 H          4.9487764649       -0.2173283322       -0.6095615119
 C          5.7582583054       -1.6323674835        0.8031317403
 H          5.5621609133       -2.6982253924        0.9255159419
 H          6.8254389302       -1.4781028686        0.9762447037
 C          5.0147532647       -0.8525681751        1.8891861176
 H          5.1364192109        0.2201039946        1.7180413253
 H          5.4782651791       -1.0840352988        2.8520312366
 C          3.5159866237       -1.1527998740        2.0188676342
 H          3.3633464474       -2.2303473630        2.1080183248
 H          3.1619874489       -0.6791353952        2.9394939146
 H          5.0495463135       -3.1198657367       -1.5368329778
 H          4.3123775863       -1.7478521730       -2.3743185189
 H          3.3580818165       -3.0822840862        0.1905120243
 H          2.5372448514       -2.9993080299       -1.3801818638
 O          1.7332368410       -0.6840290748       -1.2684070057
 C          1.0783708254        0.5283683644       -1.1154619219
 O          0.4002443752        0.8747803120       -2.0982474746
 H         -0.8917934267        0.7555480936        1.6165079351
 C         -1.5289114101        1.3075021423        0.9360102454
 C         -0.9686599717        2.3076571359        0.1494704139
 C         -1.7973791045        3.0106495411       -0.7135178031
 C         -3.1452574469        2.7027207353       -0.7978775496
 C         -3.6957335300        1.6987223215       -0.0229519239
 C         -2.8763668029        0.9990647596        0.8539717206
 N         -3.4248735253       -0.0353203727        1.6457239092
 S         -4.0017330346       -1.3636442264        0.8020511186
 O         -5.1754700771       -0.9717376649        0.0651558724
 O         -4.1850924856       -2.3989738450        1.7940114559
 C         -2.6921037349       -1.8129245599       -0.3211734504
 C         -1.7197992171       -2.6906310001        0.1147380598
 C         -0.6805181453       -3.0173493532       -0.7405943675
 C         -0.6266716291       -2.4545934244       -2.0064006289
 C         -1.6026050689       -1.5638175236       -2.4238808240
 C         -2.6471602495       -1.2371281919       -1.5747506643
 H         -3.4263376156       -0.5521487320       -1.8665277996
 H         -1.5431895129       -1.1120495247       -3.4003783175
 H          0.1851728386       -2.7007221043       -2.6723727940
 H          0.0847107006       -3.7044525166       -0.4154447164
 H         -1.8025221168       -3.1131672990        1.1036699884
 H         -2.7894314318       -0.3558884081        2.3635571033
 H         -4.7382343418        1.4333207392       -0.0920534071
 H         -3.7757868756        3.2518173227       -1.4805959180
 H         -1.3877606625        3.7926243865       -1.3311148485
 C          0.5169772668        2.5392848349        0.2681619203
 H          0.7339158085        2.8557482264        1.2991449058
 C          1.0547522280        3.5829472754       -0.6866670740
 C          0.9581752066        5.0381677728       -0.3416600761
 C          2.2868627850        4.3463025897       -0.3070808321
 H          3.0096820327        4.5750346377       -1.0758250721
 H          2.7280906427        4.1314767292        0.6554559531
 H          0.4984042250        5.2993345741        0.5994838068
 H          0.7706963010        5.7458596483       -1.1349320195
 H          0.9472984848        3.2932504879       -1.7256205793
 O          2.0976320771        1.2693507983        2.2825540150
