  62
        -98.94011433
 C         -2.3250138924       -0.4794346579        0.3514482085
 C         -3.5109206784       -0.4995439199        1.1308393838
 C         -4.4967524253        0.5508697645        0.8460322390
 C         -4.2082766852        1.4876622843       -0.0750960466
 C         -5.1371769728        2.5864741514       -0.5014357854
 C         -5.9980684172        2.1536223724       -1.6965366420
 C         -6.6730847725        0.7944246707       -1.5121062038
 H         -5.9060941254        0.0172388311       -1.4756201097
 H         -7.2763193625        0.6072096893       -2.4031246756
 C         -7.5597028709        0.6898762893       -0.2632576186
 H         -8.4984623983        0.2054164238       -0.5400497497
 H         -7.8056766016        1.6879522033        0.1010345658
 C         -6.9549911220       -0.1304762721        0.8777975078
 H         -6.6225173365       -1.0994225664        0.4962214429
 H         -7.7414183642       -0.3221491994        1.6126082756
 C         -5.7836027869        0.5234251867        1.6216036424
 H         -5.5818442980       -0.0740949343        2.5155349669
 H         -6.0647941906        1.5299625586        1.9378527821
 H         -5.3602942489        2.1015332426       -2.5820129587
 H         -6.7575520293        2.9181911004       -1.8696986063
 H         -4.5370700249        3.4506645969       -0.7910208815
 H         -5.7735560610        2.8625941961        0.3371076925
 O         -3.0388838655        1.5108896272       -0.7605889691
 C         -2.0701498131        0.5293515371       -0.5794959263
 O         -1.0648549040        0.6846706399       -1.2957719963
 O         -3.7331243857       -1.3575072927        2.0265862183
 C         -1.3019222325       -1.5701307543        0.6169183150
 C          0.0683828312       -0.9710611538        0.8013260357
 C          0.3484091283       -0.2760303395        1.9743665983
 C          1.5877448236        0.3008536351        2.1753148442
 C          2.5735055800        0.2015228076        1.2090714743
 C          2.3043990160       -0.4877398613        0.0349728364
 C          1.0615428493       -1.0771137510       -0.1587949636
 H          0.8585449108       -1.5938571426       -1.0840908884
 N          3.2913310740       -0.5707286019       -0.9598377874
 S          4.8489675072       -1.0109372982       -0.5332275477
 O          5.4320029745       -1.5592562181       -1.7385842148
 O          4.8574429456       -1.8691262566        0.6292227602
 C          5.6475395642        0.5350757474       -0.1561444907
 C          5.6100394854        1.5358593538       -1.1071062376
 C          6.2362274277        2.7414751184       -0.8344599486
 C          6.8873324368        2.9243918292        0.3765352705
 C          6.9183703977        1.9088165434        1.3197546207
 C          6.2936010673        0.7003560077        1.0531989644
 H          6.2871055598       -0.1153096792        1.7586566622
 H          7.4249089908        2.0531718612        2.2605383857
 H          7.3732024837        3.8643230458        0.5859723562
 H          6.2133132898        3.5337968092       -1.5653026277
 H          5.0942248144        1.3546086196       -2.0354099634
 H          2.9884695136       -1.0349787964       -1.8030320958
 H          3.5407586330        0.6539047460        1.3555822200
 H          1.7890391772        0.8368815002        3.0904622095
 H         -0.4240164824       -0.1894592532        2.7264568800
 H         -1.6132611887       -2.0026958529        1.5821734692
 C         -1.3245106382       -2.7106564834       -0.3901259623
 C         -2.6178550654       -3.1701409264       -0.9919076892
 C         -1.5863325428       -2.5058916726       -1.8511058132
 H         -1.0407737053       -3.1156097616       -2.5572119974
 H         -1.7689237719       -1.5000480369       -2.1952678924
 H         -2.7848871507       -4.2301635755       -1.1098212379
 H         -3.5080447543       -2.6124708342       -0.7397428615
 H         -0.6111337023       -3.4877577039       -0.1302123393
