  62
        -98.94042440
 C         -2.0514136103       -0.4209576299        0.0857550502
 C         -2.7306865505        0.7479399899        0.5161277304
 C         -4.0834986006        0.9540829897       -0.0146327794
 C         -4.5882583906        0.0594196696       -0.8833447693
 C         -5.9704120007        0.1122500793       -1.4654594291
 C         -6.9678868604       -0.6687233509       -0.5985337090
 C         -6.8982103202       -0.3204613909        0.8883408810
 H         -7.6662560200       -0.9076191511        1.3964500811
 H         -5.9326185901       -0.6423250908        1.2850466608
 C         -7.1021521305        1.1684155890        1.2016697111
 H         -7.5704785607        1.6655122689        0.3513697512
 H         -7.7879454204        1.2577481388        2.0468641512
 C         -5.8240235906        1.9170317393        1.5845721909
 H         -6.1094774007        2.8902007592        1.9930229010
 H         -5.3026305703        1.3713091093        2.3750914708
 C         -4.8327438008        2.1739797195        0.4423824108
 H         -4.0740882109        2.8708241797        0.8108378407
 H         -5.3512897710        2.6441950494       -0.3958397791
 H         -7.9751345805       -0.4761737411       -0.9724130288
 H         -6.7620666602       -1.7357823209       -0.7102238991
 H         -5.9414731008       -0.3330398006       -2.4613998791
 H         -6.2829996209        1.1511382593       -1.5518269090
 O         -3.9009171504       -1.0326675102       -1.2967805995
 C         -2.6204279803       -1.3094251200       -0.8282019397
 O         -2.1320435501       -2.3498578199       -1.3027934398
 O         -2.2247087905        1.5782355500        1.3193871803
 C         -0.6640989202       -0.6438647996        0.6601794100
 C          0.3933738295       -0.0247796394       -0.2171711302
 C          0.4446587894       -0.2881431293       -1.5822624702
 C          1.4327898991        0.2751485609       -2.3693036003
 C          2.3920862391        1.1031897311       -1.8127842304
 C          2.3536579892        1.3668509310       -0.4504882004
 C          1.3568031395        0.8053667308        0.3370221897
 H          1.3213167496        1.0296551108        1.3945516397
 N          3.3534232191        2.1790591012        0.1224190294
 S          4.9280138792        1.6247883716       -0.0600069608
 O          5.6904469993        2.2815219717        0.9768319791
 O          5.3594788290        1.8565752617       -1.4143384009
 C          4.8010471996       -0.1249848485        0.2588286891
 C          4.7516380799       -0.5486527885        1.5723030891
 C          4.5491558103       -1.8935420486        1.8358823891
 C          4.3854827803       -2.7852508086        0.7867149591
 C          4.4405739300       -2.3444656285       -0.5260591509
 C          4.6505754397       -1.0017059485       -0.7966884809
 H          4.7040966294       -0.6216640584       -1.8033681609
 H          4.3135944400       -3.0406075185       -1.3394065509
 H          4.2107418905       -3.8288022986        0.9937395191
 H          4.5098172205       -2.2410345086        2.8557717791
 H          4.8839498399        0.1757769615        2.3601700991
 H          3.1782418192        2.4046616812        1.0915213095
 H          3.1735818189        1.5443394213       -2.4102456806
 H          1.4577650690        0.0654825409       -3.4279949203
 H         -0.2940114205       -0.9448142795       -2.0162326601
 H         -0.6672761201       -0.0867074397        1.6106048000
 C         -0.3680150498       -2.1012552196        0.9897494699
 C          0.6647716102       -2.9190357493        0.2793623197
 C          0.9126564104       -2.4618192593        1.6831667997
 H          0.8822481406       -3.1876292194        2.4811450697
 H          1.6374847402       -1.6742657692        1.8263664396
 H          0.4372361204       -3.9583955694        0.1003456997
 H          1.2299010200       -2.4546113792       -0.5131088604
 H         -1.2596001997       -2.6308472898        1.3089123000
