  62
        -98.93809510
 C          2.7394138459        0.3761475858       -0.3179088323
 C          2.8646102303       -0.5012837572        0.7900957102
 C          2.7228229237       -1.9351121308        0.5146743446
 C          2.4879816453       -2.3383379717       -0.7466416434
 C          2.3183173699       -3.7664399314       -1.1761693596
 C          0.8446005202       -4.1922153986       -1.1698811984
 C          0.1006860011       -3.8527931539        0.1222606896
 H         -0.0133153826       -2.7683767299        0.2010092798
 H         -0.9076537882       -4.2636973520        0.0301198797
 C          0.7537659728       -4.3986141737        1.3995307622
 H          1.4345574329       -5.2135450878        1.1491817926
 H         -0.0298748461       -4.8128912830        2.0375129974
 C          1.4966594963       -3.3545153901        2.2359814653
 H          0.8549766272       -2.4797611380        2.3776928230
 H          1.6878302583       -3.7839073326        3.2234070323
 C          2.8439027527       -2.8813836962        1.6747166676
 H          3.3575458123       -2.3238051157        2.4634524130
 H          3.4563334576       -3.7456798503        1.4087982311
 H          0.7989887377       -5.2690564936       -1.3455049190
 H          0.3342493145       -3.6889638859       -1.9941846626
 H          2.7096593295       -3.8657749842       -2.1904566585
 H          2.8943592368       -4.4068161579       -0.5107635422
 O          2.3583305280       -1.4726299707       -1.7814086749
 C          2.4301033007       -0.0963260048       -1.5934330171
 O          2.2127831501        0.5563017953       -2.6319288837
 H          0.4115773208        1.3647446734       -1.0471120796
 C          0.3452747878        1.9589000361       -0.1453849719
 C          1.5083683588        2.3396495801        0.5091144698
 C          1.3971114684        3.0970764657        1.6683061544
 C          0.1536217311        3.4453726347        2.1685222751
 C         -1.0028424443        3.0302175013        1.5321634259
 C         -0.8983635576        2.2860386285        0.3668082196
 N         -2.0839611705        1.7772782669       -0.2423690686
 S         -2.3990028452        0.2347722793        0.3969109122
 O         -2.3774877843        0.3402087582        1.8339560546
 O         -1.5060129307       -0.7398136255       -0.1929897159
 C         -4.0691030988       -0.0427031326       -0.1605814327
 C         -5.0767406748        0.7073186355        0.4149230024
 C         -6.3785099616        0.5275690555       -0.0234265818
 C         -6.6489861316       -0.3934658562       -1.0250068235
 C         -5.6267956403       -1.1382914626       -1.5927371067
 C         -4.3215025423       -0.9616459734       -1.1597358984
 H         -3.4949022507       -1.5203379513       -1.5693054757
 H         -5.8392368880       -1.8546262813       -2.3700273667
 H         -7.6630870719       -0.5328227318       -1.3646847397
 H         -7.1764550680        1.1042234884        0.4157240726
 H         -4.8181040411        1.4046192640        1.1940928927
 H         -1.9450203541        1.6485077769       -1.2381488773
 H         -1.9775856491        3.2535875496        1.9329079483
 H          0.0853164820        4.0255224682        3.0760562607
 H          2.2936667136        3.3850759986        2.1976723194
 C          2.8421900214        1.8603620442       -0.0060381590
 H          3.5580946592        1.9296140947        0.8289996940
 C          3.3852083535        2.7048180955       -1.1473912607
 C          2.5364582619        3.6431062782       -1.9466616358
 C          3.5354321511        4.1873043899       -0.9729185086
 H          4.4252718361        4.6639113248       -1.3545830849
 H          3.1551539357        4.6211687591       -0.0605696108
 H          2.7377772106        3.7202828629       -3.0039328830
 H          1.4890606480        3.7180764702       -1.6985806187
 H          4.1743944473        2.1940649648       -1.6885785246
 O          3.1012904035       -0.0934804049        1.9598674250
