  62
        -98.93138301
 C          2.3517041328        0.7198270877        0.0047152254
 C          3.5456477044        0.8209618377        0.7531496191
 C          4.7364731466        0.1532121640        0.1958608947
 C          4.6184942765       -0.5356157946       -0.9537187155
 C          5.6781604425       -1.2925290436       -1.7140546643
 C          6.6250182713       -2.1745052974       -0.8855428694
 C          8.0532219343       -1.6314996429       -0.8117193918
 H          8.7324279911       -2.4621447329       -0.6072509640
 H          8.3212373047       -1.2249579329       -1.7891185010
 C          8.2895167297       -0.5682018540        0.2594813183
 H          8.2671711209       -1.0375318436        1.2454657195
 H          9.2959807733       -0.1691730627        0.1127985098
 C          7.2957142581        0.5950699881        0.2570102686
 H          7.0717692369        0.9044266454       -0.7632023536
 H          7.7749476725        1.4439519883        0.7493528003
 C          5.9926735410        0.2927830296        1.0120776617
 H          6.1162900435       -0.6047972737        1.6251835790
 H          5.7769378135        1.1055368507        1.7127270016
 H          6.2201414455       -2.3150593655        0.1155133697
 H          6.6628516599       -3.1572198500       -1.3584598806
 H          5.1269145781       -1.9088016694       -2.4278891999
 H          6.2582933334       -0.5778716062       -2.3031802461
 O          3.4397812910       -0.6174101389       -1.6355336720
 C          2.2855856182        0.0013336081       -1.1878523956
 O          1.2958332489       -0.1591757365       -1.9261795584
 O          3.6182397250        1.4465351697        1.8461943302
 C          1.0951674432        1.3928740373        0.5269287653
 C          0.0354483416        0.3500591038        0.7850274419
 C          0.3335627681       -0.6988267594        1.6518097154
 C         -0.5966041849       -1.6850071080        1.9153113358
 C         -1.8454319241       -1.6506330214        1.3192168566
 C         -2.1562452307       -0.6065871497        0.4600559440
 C         -1.2220980064        0.3921034313        0.2064237977
 H         -1.4788635164        1.1962977997       -0.4651110887
 N         -3.4145983923       -0.5719553650       -0.1660161069
 S         -4.7675969961       -0.9601016436        0.7662153624
 O         -4.7085843837       -0.2721648615        2.0368599226
 O         -4.8840015492       -2.3952910076        0.8343750542
 C         -6.0752724489       -0.2935320024       -0.2439681269
 C         -6.5632116991       -1.0549180643       -1.2889250764
 C         -7.5612507529       -0.5269687395       -2.0924228126
 C         -8.0505413942        0.7461523734       -1.8401811997
 C         -7.5510116820        1.4980562727       -0.7874110058
 C         -6.5523001861        0.9765221061        0.0197854678
 H         -6.1412585157        1.5213978299        0.8545456811
 H         -7.9353185594        2.4863525633       -0.5926092380
 H         -8.8280535789        1.1541378140       -2.4665526091
 H         -7.9540491932       -1.1090210233       -2.9103914472
 H         -6.1581035372       -2.0415672914       -1.4418838505
 H         -3.5589519264        0.2817769801       -0.6875193591
 H         -2.5809707033       -2.4146039338        1.5135532318
 H         -0.3495326403       -2.4917855622        2.5894851929
 H          1.3105457370       -0.7299219296        2.1152692557
 H          1.3803137933        1.8329856567        1.4937301254
 C          0.6587651877        2.5034035573       -0.4044352561
 C         -0.1759815769        3.6347826421        0.1152700490
 C          1.2612400170        3.8653066793       -0.2405191312
 H          1.4890312086        4.4379295742       -1.1269848859
 H          1.9734266866        3.9995461103        0.5603835600
 H         -0.9346908619        4.0550175089       -0.5276572203
 H         -0.4435476898        3.6175050596        1.1610431685
 H          0.4809535971        2.1548428777       -1.4155892063
