  62
        -98.93514660
 C          1.9981309156        1.1336918519        0.1171464543
 C          2.4791114343        0.3162777829        1.1706857284
 C          3.2175978791       -0.8997557790        0.7936886830
 C          3.3701052954       -1.1874811778       -0.5100756069
 C          4.1207567933       -2.3413009196       -1.1155743012
 C          5.5716019374       -1.9419836342       -1.4350314055
 C          6.5590713602       -2.1256331038       -0.2832662785
 H          6.7241630186       -3.1925840285       -0.1200063275
 H          7.5101963694       -1.6910293121       -0.5990717474
 C          6.1423838614       -1.4863346369        1.0437928794
 H          5.7281299839       -0.4934600274        0.8595671261
 H          7.0413502720       -1.3549488572        1.6489329615
 C          5.1325501878       -2.3339746734        1.8318187784
 H          5.4923756897       -2.4683532187        2.8539365161
 H          5.0791318542       -3.3286231430        1.3896995061
 C          3.7206869538       -1.7394958534        1.9360242214
 H          3.0030110113       -2.5480840515        2.1124503579
 H          3.6658574724       -1.0802091385        2.8081254245
 H          5.9208268901       -2.5403518327       -2.2789427631
 H          5.5678093565       -0.8968116822       -1.7550336378
 H          4.0846448732       -3.2084457653       -0.4627558217
 H          3.6112345296       -2.5855844578       -2.0503181759
 O          2.8745165160       -0.3891934820       -1.4936936078
 C          2.1729079370        0.7749010742       -1.2188874743
 O          1.7789177710        1.3701425660       -2.2409390360
 O          2.3084982408        0.6040059703        2.3861925634
 C          1.2379633478        2.3850841762        0.5238599212
 C         -0.2347476072        2.0802437595        0.6202581288
 C         -0.9570754750        2.3492758433        1.7762604752
 C         -2.2994980005        2.0213183793        1.8619808881
 C         -2.9449044853        1.4104102750        0.8012255081
 C         -2.2292202587        1.1345370534       -0.3560684911
 C         -0.8902371517        1.4758871341       -0.4445000456
 H         -0.3418755407        1.2535421800       -1.3488491078
 N         -2.8744597813        0.4622592258       -1.4272515936
 S         -2.9729705905       -1.2023221860       -1.1583894127
 O         -1.7975099744       -1.6936613386       -0.4711670256
 O         -3.2528746353       -1.7928034429       -2.4490041368
 C         -4.4019050162       -1.3526455432       -0.1095722092
 C         -5.6460086166       -1.1145958242       -0.6610257830
 C         -6.7649005287       -1.2023016317        0.1517398650
 C         -6.6207399043       -1.5239834150        1.4934097838
 C         -5.3647618777       -1.7626242418        2.0304994225
 C         -4.2410861180       -1.6763814668        1.2231698849
 H         -3.2438612263       -1.8479078712        1.5961347538
 H         -5.2542078553       -2.0125015865        3.0734190124
 H         -7.4926508133       -1.5898034411        2.1248805522
 H         -7.7432829042       -1.0184812170       -0.2618898602
 H         -5.7093541490       -0.8732919680       -1.7089534949
 H         -2.3905164894        0.6018819290       -2.3053210613
 H         -3.9888084710        1.1490276793        0.8598358032
 H         -2.8471043053        2.2370445044        2.7663354665
 H         -0.4530534277        2.8010035175        2.6180396111
 H          1.5953728994        2.6099046508        1.5411952444
 C          1.5490119389        3.5945485354       -0.3462605708
 C          0.5589531835        4.2292976385       -1.2721103168
 C          0.9513130397        4.9284071917       -0.0074472101
 H          1.5750049060        5.8069343788       -0.0702498437
 H          0.2248173588        4.9550812959        0.7906736235
 H          0.9285802795        4.6044000262       -2.2142985522
 H         -0.4308589616        3.8051382861       -1.3344866191
 H          2.5813283309        3.5945505583       -0.6812740890
