  62
        -98.94176256
 C         -2.1999156192       -1.2606337008        0.2980747912
 C         -1.8065702869       -0.3160786677       -0.6823451843
 C         -2.6140494972        0.9150329066       -0.7436094184
 C         -3.6333786950        1.0859061287        0.1167036414
 C         -4.5172096448        2.2976275050        0.1760248167
 C         -3.9700444355        3.3437829330        1.1566895244
 C         -2.4890572656        3.6631269722        0.9530011748
 H         -2.2194297357        4.4365863319        1.6756155224
 H         -1.8970573719        2.7776741421        1.1976584135
 C         -2.1314712335        4.1371687058       -0.4626351535
 H         -3.0323689487        4.4677844352       -0.9806701021
 H         -1.4671885647        5.0004386392       -0.3842137798
 C         -1.4064512811        3.0944378307       -1.3154131583
 H         -1.0074427541        3.6003890279       -2.1985708648
 H         -0.5571056769        2.6977777082       -0.7538722387
 C         -2.2601752687        1.9180064751       -1.8062397477
 H         -1.6769955805        1.3684605634       -2.5510855805
 H         -3.1620900628        2.2977403603       -2.2907320759
 H         -4.5584512300        4.2570537770        1.0517726923
 H         -4.1036904474        2.9694402616        2.1744616753
 H         -5.5071847664        1.9828839467        0.5108795603
 H         -4.6018903959        2.7278228254       -0.8200800853
 O         -3.9502283649        0.1778338565        1.0752867053
 C         -3.2382413519       -1.0050757672        1.1972782769
 O         -3.6146562996       -1.7329754939        2.1378308587
 O         -0.8419722767       -0.4773871946       -1.4708958723
 C         -1.4810507657       -2.5887107034        0.4614686290
 C          0.0159884301       -2.4007035974        0.3982345169
 C          0.8551429288       -3.1525975745       -0.4135171533
 C          2.2240714291       -2.9465018023       -0.3915238627
 C          2.7852792742       -1.9822984722        0.4240897724
 C          1.9520087921       -1.2068182655        1.2212453470
 C          0.5845604878       -1.4315636348        1.2163145303
 H         -0.0601620300       -0.8314645970        1.8479408094
 N          2.5044072736       -0.1947129920        2.0221127144
 S          3.7586517571        0.7227492047        1.4034275564
 O          5.0095048278        0.0427162966        1.6367995916
 O          3.6246967616        2.0151321943        2.0410135403
 C          3.4800738478        0.8619424081       -0.3541526027
 C          2.2258681944        1.2159316462       -0.8080059921
 C          2.0081337678        1.3152990444       -2.1717497502
 C          3.0477431020        1.0709151993       -3.0553406613
 C          4.3058152314        0.7278498368       -2.5850320415
 C          4.5258141603        0.6175080296       -1.2216153677
 H          5.4832285456        0.3386075640       -0.8119264872
 H          5.1124948103        0.5390644363       -3.2749969866
 H          2.8723723270        1.1456659186       -4.1168871912
 H          1.0226406438        1.5603253203       -2.5321737473
 H          1.4283205751        1.3926395418       -0.1035626120
 H          1.8232470252        0.3812163919        2.4935649707
 H          3.8500184285       -1.8161002188        0.4572266853
 H          2.8636385613       -3.5430117184       -1.0237541413
 H          0.4393496356       -3.8922097983       -1.0769459796
 H         -1.7266625570       -2.9182478411        1.4853578177
 C         -1.9879798880       -3.6781922294       -0.4739461688
 C         -3.3600627831       -3.6153553358       -1.0742865378
 C         -2.1532386656       -3.4470019025       -1.9450125181
 H         -1.8967439665       -4.2475423317       -2.6232988336
 H         -1.9225396310       -2.4631272951       -2.3209344318
 H         -3.9268604719       -4.5316308114       -1.1467733382
 H         -3.9657329323       -2.7465992760       -0.8598376713
 H         -1.6496144664       -4.6634768181       -0.1686970711
