  62
        -98.94065908
 C         -2.6430345233       -1.2502494927       -0.3199173534
 C         -2.2498902883       -0.0601424138       -0.9786568841
 C         -3.2657930144        1.0015079200       -1.0409605335
 C         -4.4793087200        0.7891139482       -0.5004748950
 C         -5.5867334697        1.8006305579       -0.4495848781
 C         -5.5295115352        2.6209855314        0.8465903645
 C         -4.1437932119        3.1863279000        1.1590879972
 H         -4.2304765359        3.7718969579        2.0770047385
 H         -3.4585719395        2.3615318481        1.3700599765
 C         -3.5507619891        4.0637736319        0.0478541404
 H         -3.1207251897        4.9591970976        0.5015479407
 H         -4.3419961212        4.3904371952       -0.6279952684
 C         -2.4364149404        3.3977003010       -0.7617811027
 H         -1.6832146603        2.9872350085       -0.0831369722
 H         -1.9463270787        4.1691056580       -1.3621112146
 C         -2.8814542297        2.2856733546       -1.7202993442
 H         -3.6955863284        2.6480191035       -2.3512623029
 H         -2.0297226635        2.0416839866       -2.3618516073
 H         -6.2485322995        3.4385596780        0.7701173982
 H         -5.8316088960        1.9786821688        1.6769934599
 H         -5.5107092393        2.4590514313       -1.3125646020
 H         -6.5391102532        1.2695041096       -0.4908091138
 O         -4.8233688594       -0.3720228650        0.1127234510
 C         -3.9129528722       -1.4068963402        0.2385386175
 O         -4.3473125737       -2.4015932997        0.8532905290
 H          0.9324080830       -1.7651727719       -0.8201808895
 C          0.7232194772       -1.6300194826        0.2290060283
 C         -0.5340307255       -1.9300506345        0.7251973058
 C         -0.7845374963       -1.7217150852        2.0793238744
 C          0.2011060275       -1.2270085114        2.9113879276
 C          1.4566927078       -0.9253191091        2.4117168153
 C          1.7133226838       -1.1220233729        1.0623787079
 N          2.9886122222       -0.8301375487        0.5408195556
 S          3.7179881372        0.6124675326        1.0330973734
 O          4.2947492559        0.4078935385        2.3390346420
 O          2.7885170531        1.7146372231        0.9220082367
 C          5.0134055157        0.7557931602       -0.1817752809
 C          4.7534565262        1.4239980421       -1.3634181856
 C          5.7518911073        1.5033212634       -2.3214728199
 C          6.9843858494        0.9129556177       -2.0844777509
 C          7.2299609119        0.2460840654       -0.8934722095
 C          6.2364426632        0.1637727757        0.0691808336
 H          6.3822602747       -0.3372621784        1.0118010829
 H          8.1902501570       -0.2091756914       -0.7125617400
 H          7.7587699594        0.9761337903       -2.8325313122
 H          5.5643238030        2.0233359032       -3.2472028019
 H          3.7832614519        1.8747158658       -1.5027118287
 H          2.9973347211       -0.8963616693       -0.4685916869
 H          2.2306796816       -0.5244471226        3.0460555674
 H         -0.0079339248       -1.0689468941        3.9591095911
 H         -1.7708702287       -1.9417021751        2.4658198168
 C         -1.6664890593       -2.4036837807       -0.1531648396
 H         -2.2133226892       -3.1864809042        0.3896294334
 C         -1.2278144491       -2.9547211220       -1.4931117745
 C         -0.5872180451       -4.3076420732       -1.5607670243
 C         -1.9762805918       -4.1086074853       -2.0864318897
 H         -2.1321516606       -4.1260360439       -3.1546776965
 H         -2.8026435596       -4.5112608747       -1.5190142061
 H         -0.4680906154       -4.8478102390       -0.6337941027
 H          0.2113117901       -4.4668021373       -2.2692387414
 H         -0.8789483775       -2.1890151972       -2.1751672948
 O         -1.1156810432        0.1130160002       -1.4977837553
