  62
        -98.94872225
 C         -1.7807369628       -1.1607021030       -0.2886659804
 C         -0.7515216964       -1.6632212624       -1.1184362508
 C          0.1521045244       -2.6378804931       -0.5005473429
 C         -0.0160702151       -2.9756941022        0.7909075379
 C          0.8004160595       -3.9829501780        1.5548046470
 C          2.1156796498       -3.4242031922        2.1134635919
 C          3.2142298183       -3.1945724297        1.0752091768
 H          4.1454207087       -3.0423161844        1.6247035616
 H          3.3357035245       -4.0927134208        0.4684000214
 C          2.9775353367       -1.9797283298        0.1671700128
 H          2.2424193581       -1.3155288645        0.6299871510
 H          3.9060477358       -1.4113561219        0.0797059698
 C          2.5276931862       -2.3180457433       -1.2542546292
 H          2.3265183931       -1.3795107357       -1.7777683517
 H          3.3359191862       -2.8321589844       -1.7795389156
 C          1.2686419872       -3.1896621946       -1.3352266193
 H          1.4987761439       -4.2107629745       -1.0311484711
 H          0.9284584166       -3.2005212995       -2.3738670037
 H          1.9039672071       -2.4838008520        2.6291088722
 H          2.4851744303       -4.1371113703        2.8547225724
 H          1.0097089271       -4.8441418929        0.9188699543
 H          0.1814463377       -4.3109897971        2.3928182047
 O         -0.9990399441       -2.4460339188        1.5658618520
 C         -1.8822495035       -1.5054747365        1.0588865909
 O         -2.7082853845       -1.0768168631        1.8887752213
 O         -0.6011811729       -1.3180545185       -2.3223478148
 C         -2.7410022496       -0.1292555689       -0.8532379391
 C         -2.5523846976        1.1765938502       -0.1215452798
 C         -3.5969784958        1.9665793228        0.3381563793
 C         -3.3327439771        3.1346333968        1.0337597440
 C         -2.0337479686        3.5319072188        1.2897197709
 C         -0.9802584618        2.7552505295        0.8175272746
 C         -1.2482760310        1.6027737197        0.0994465789
 H         -0.4308194214        0.9912142415       -0.2534688105
 N          0.3509671332        3.1427118949        1.0292859653
 S          1.5971071516        2.0392434266        1.1765672192
 O          1.1344722485        0.7415353089        1.6127283837
 O          2.5609083528        2.6849115140        2.0442882821
 C          2.3146605908        1.9168965816       -0.4519948210
 C          1.6393291989        2.3304252002       -1.5817590069
 C          2.2516047867        2.1833461605       -2.8177483332
 C          3.5199308427        1.6327477137       -2.9052858065
 C          4.1920260870        1.2350071709       -1.7597664326
 C          3.5858122361        1.3798087647       -0.5228689291
 H          4.0732152551        1.0940230280        0.3954501243
 H          5.1815192980        0.8121333872       -1.8264746612
 H          3.9874930109        1.5153679883       -3.8700699198
 H          1.7302447169        2.4967998474       -3.7079802497
 H          0.6536998461        2.7573166779       -1.4964114717
 H          0.4798348946        3.9319566164        1.6440771414
 H         -1.8310741823        4.4308893362        1.8515428853
 H         -4.1521668998        3.7371823656        1.3953844374
 H         -4.6163594594        1.6623036041        0.1665568209
 H         -2.4315916672        0.0145227405       -1.8996602148
 C         -4.1651233140       -0.6409686745       -0.8303951142
 C         -5.1547176315       -0.1658646474       -1.8511317710
 C         -4.6201023305       -1.5638043771       -1.9198607223
 H         -5.2745616837       -2.3825724527       -1.6613748388
 H         -3.9074387439       -1.8033236717       -2.6954879937
 H         -6.1812951308       -0.0261700556       -1.5477037059
 H         -4.8108882075        0.5436518918       -2.5883307298
 H         -4.5181075684       -0.8410350094        0.1750213258
