  62
        -98.93810747
 C         -2.2762336370       -1.0439596714       -0.3823470930
 C         -3.6680100819       -1.1255240352       -0.1107982169
 C         -4.4792811346        0.0292403578       -0.5086613531
 C         -3.8873502026        1.0920985484       -1.0819491184
 C         -4.5779173379        2.3395249797       -1.5624777086
 C         -4.8220756340        3.3808199324       -0.4617441968
 C         -5.9203673827        3.0226351097        0.5402393262
 H         -6.1347233157        3.9250453917        1.1161983178
 H         -6.8301224462        2.7567939311        0.0010054847
 C         -5.5473305500        1.8945933248        1.5124002119
 H         -4.4633299231        1.7560352902        1.5112799328
 H         -5.8303487959        2.1807520670        2.5279563583
 C         -6.2191872077        0.5536738501        1.2160347136
 H         -7.2993937827        0.6484617156        1.3467821482
 H         -5.8552306797       -0.1790946294        1.9407263126
 C         -5.9438374096        0.0056994426       -0.1902894335
 H         -6.2755548466       -1.0349591642       -0.2231367461
 H         -6.5031041330        0.5754111084       -0.9321025094
 H         -3.8837233708        3.5522522284        0.0712922697
 H         -5.0997440176        4.3158329394       -0.9538585233
 H         -3.9263989015        2.7841300017       -2.3178682019
 H         -5.5259622096        2.0756115354       -2.0321093340
 O         -2.5503781516        1.1420089036       -1.3131836358
 C         -1.7064838438        0.0946165360       -0.9561863799
 O         -0.5097945546        0.3159823037       -1.2196888876
 O         -4.2084518491       -2.1223452102        0.4374085920
 C         -1.4194174583       -2.2195871104        0.0575426414
 C         -0.2829606293       -1.7226125874        0.9127229126
 C         -0.5231165651       -1.3957387461        2.2439507424
 C          0.4849469510       -0.8797550307        3.0366449214
 C          1.7495484241       -0.6697260885        2.5154003770
 C          1.9940867779       -0.9797801165        1.1847033882
 C          0.9858788092       -1.5187043951        0.3958203739
 H          1.1797946555       -1.7412211812       -0.6418406611
 N          3.2744099130       -0.7645694147        0.6399229028
 S          4.0660919478        0.6624473353        1.0776205019
 O          4.7240624922        0.4410850922        2.3427975684
 O          3.1596894474        1.7875810054        1.0323372598
 C          5.2827067863        0.7860402511       -0.2184243844
 C          4.9370110714        1.4232909115       -1.3953181762
 C          5.8720167626        1.4985158324       -2.4156082686
 C          7.1279519877        0.9353846468       -2.2438002081
 C          7.4592533157        0.2983239234       -1.0573683409
 C          6.5294833468        0.2202674270       -0.0325382261
 H          6.7425727411       -0.2573276846        0.9094564956
 H          8.4371600380       -0.1362969898       -0.9276132260
 H          7.8530118744        0.9964341898       -3.0399426264
 H          5.6169886920        1.9947901119       -3.3382497962
 H          3.9511740585        1.8530443571       -1.4831216984
 H          3.2685196277       -0.8715124230       -0.3657402029
 H          2.5413642295       -0.2496589557        3.1148792818
 H          0.2853155031       -0.6305708050        4.0682930927
 H         -1.5161914430       -1.5391810524        2.6477900832
 H         -2.0903219180       -2.8161390926        0.6966449409
 C         -0.9635649070       -3.1408456018       -1.0638439087
 C         -1.8954698770       -3.4843367480       -2.1864704110
 C         -0.6670540246       -2.6703197253       -2.4548371107
 H          0.1494487632       -3.1391682992       -2.9849086434
 H         -0.7803462383       -1.6199925217       -2.6713946532
 H         -1.9277737026       -4.5041516093       -2.5388454752
 H         -2.8524373387       -2.9832434242       -2.2050901083
 H         -0.3442713868       -3.9488136873       -0.6855820369
