  62
        -98.93688291
 C         -0.3861320984       -1.9696319068        0.2785021912
 C         -1.1052858734       -1.4280652125       -0.8135268134
 C         -2.3366096835       -0.6743992066       -0.4848802139
 C         -2.7642022186       -0.6280266453        0.7884928583
 C         -3.9773716522        0.0596912651        1.3624684185
 C         -5.2806088734       -0.0497029570        0.5570027187
 C         -5.7002067274        1.2650117452       -0.1028440323
 H         -6.7784579194        1.2417620131       -0.2753926800
 H         -5.4985462575        2.0829436991        0.5918598008
 C         -5.0251417401        1.5633909199       -1.4407681525
 H         -5.4276437508        0.8971140452       -2.2069450057
 H         -5.2900988993        2.5839469515       -1.7268541200
 C         -3.5005214492        1.4341653981       -1.4441061865
 H         -3.0784622402        1.8456260831       -0.5272417708
 H         -3.1078303223        2.0394481439       -2.2646372857
 C         -3.0049747901       -0.0047539191       -1.6536848334
 H         -3.8232680091       -0.6370775805       -2.0111399441
 H         -2.2500287320       -0.0127364108       -2.4469078102
 H         -5.1902199801       -0.8362652723       -0.1904670590
 H         -6.0733513990       -0.3472158435        1.2452671002
 H         -4.1140626220       -0.3885339577        2.3494492968
 H         -3.7326325026        1.1122164568        1.5285874248
 O         -2.0770677435       -1.2305806918        1.8012366440
 C         -0.8721293012       -1.8713478425        1.5845628338
 O         -0.3418999616       -2.3213443314        2.6194095879
 H          1.1984622248       -0.3501976262       -1.2829838766
 C          2.0494782079       -0.5407159510       -0.6489547547
 C          2.0958141749       -1.6804734314        0.1410492968
 C          3.2226032469       -1.9032027962        0.9249486881
 C          4.2774639250       -1.0091330399        0.9151552034
 C          4.2187793084        0.1360318582        0.1417653446
 C          3.0951997860        0.3719059569       -0.6415639744
 N          2.9975404508        1.5364223353       -1.4236904734
 S          1.5899375681        2.4396519739       -1.3305353886
 O          0.5390065609        1.8303000950       -2.0995201272
 O          1.9921011455        3.7670395131       -1.7467886940
 C          1.1885482143        2.4471866877        0.4072924438
 C          1.9681110411        3.2150204148        1.2506479660
 C          1.7141241169        3.1843131228        2.6116973281
 C          0.6951461867        2.3830849969        3.1049020042
 C         -0.0811662402        1.6218627352        2.2451992534
 C          0.1663809728        1.6521328414        0.8815413774
 H         -0.4170170792        1.0710803779        0.1838614119
 H         -0.8674219026        0.9910701904        2.6303031908
 H          0.5007870548        2.3492318322        4.1652706505
 H          2.3109557595        3.7788781659        3.2842930538
 H          2.7438250203        3.8318966899        0.8267227822
 H          3.8053620036        2.1404129716       -1.3643302807
 H          5.0343040913        0.8429392781        0.1413029999
 H          5.1473703952       -1.1973683995        1.5252838058
 H          3.2629588181       -2.7808458569        1.5525147512
 C          0.9542423774       -2.6718759296        0.1472919786
 H          1.0558893061       -3.2869142396        1.0523103505
 C          1.0587692011       -3.5848948382       -1.0596658456
 C          1.9931127007       -4.7547630287       -1.0137359425
 C          0.5113105365       -4.9765464439       -0.9763784269
 H          0.0238325963       -5.3897158750       -1.8465009421
 H          0.0644359500       -5.2808358040       -0.0407433141
 H          2.5298711006       -5.0178408073       -1.9121809642
 H          2.5504020004       -4.9192458270       -0.1042168817
 H          0.9488762642       -3.0624860154       -2.0008860298
 O         -0.7582726679       -1.5407983487       -2.0188266560
