  62
        -98.94367987
 C         -1.1383569842       -1.4872381278        0.2265953327
 C         -1.5883570813       -0.4414539583        1.0728155674
 C         -2.4585612615        0.5717451173        0.4628057466
 C         -2.7443474953        0.4815505380       -0.8485332322
 C         -3.6290345139        1.4323222033       -1.6008499272
 C         -5.0876120938        0.9545095932       -1.6051429035
 C         -5.6135695528        0.5733608975       -0.2212519313
 H         -5.0737070470       -0.3077827016        0.1330258765
 H         -6.6598960569        0.2836854309       -0.3395339476
 C         -5.5058424579        1.6895482662        0.8270118582
 H         -6.4455895443        1.7405108961        1.3808295622
 H         -5.3695763518        2.6510162275        0.3307549514
 C         -4.3925695571        1.4875366998        1.8564755214
 H         -4.4702934863        0.4856193114        2.2858630125
 H         -4.5468663338        2.2046430433        2.6669570339
 C         -2.9597287208        1.6816540269        1.3437387045
 H         -2.2983796181        1.6933886429        2.2145700079
 H         -2.8752180971        2.6444475170        0.8351026025
 H         -5.1627742683        0.0794273762       -2.2549695272
 H         -5.7086673834        1.7460237203       -2.0286126499
 H         -3.2676165692        1.4914108979       -2.6293307820
 H         -3.5589386832        2.4193335520       -1.1471419440
 O         -2.2893393000       -0.5243945995       -1.6336866971
 C         -1.4706454714       -1.5310698082       -1.1295216761
 O         -1.1446674209       -2.3763735865       -1.9817234614
 O         -1.2694188916       -0.3595056291        2.2898520476
 C         -0.2004315239       -2.4995382133        0.8610578502
 C          1.2144436574       -1.9738468532        0.8482466403
 C          2.0518740953       -2.1378469832        1.9459370038
 C          3.3429252849       -1.6407195336        1.9278730582
 C          3.8106349632       -0.9391022738        0.8310897812
 C          2.9763423827       -0.7563477133       -0.2649654151
 C          1.6980804469       -1.2941222305       -0.2605107999
 H          1.0705936996       -1.1543133436       -1.1277959705
 N          3.3875506840        0.0019639452       -1.3810693534
 S          2.4443834584        1.3437431022       -1.7392697788
 O          1.1713393207        0.9375604305       -2.2746424646
 O          3.2742739880        2.1565641857       -2.6022833941
 C          2.2379039771        2.1365584155       -0.1561715657
 C          3.2240724590        2.9916402937        0.2968208727
 C          3.1190837870        3.5174032468        1.5742226425
 C          2.0475334184        3.1638801813        2.3811774707
 C          1.0669068660        2.3037353924        1.9121640744
 C          1.1584868818        1.7882151614        0.6293919678
 H          0.4076940269        1.1202434712        0.2362819128
 H          0.2366307945        2.0068562784        2.5335914224
 H          1.9737607373        3.5599569538        3.3816047747
 H          3.8762538444        4.1917067759        1.9406318674
 H          4.0413648493        3.2361321990       -0.3624096573
 H          4.3600533189        0.2769172157       -1.3470227395
 H          4.8088031371       -0.5284983619        0.8234522274
 H          3.9847018501       -1.7816707778        2.7837346352
 H          1.6789168334       -2.6447443611        2.8234577067
 H         -0.5126126828       -2.5607613693        1.9164738780
 C         -0.3092022032       -3.8977165817        0.2723782195
 C          0.7079994252       -4.4690124096       -0.6643609485
 C          0.6061138552       -4.9927552132        0.7349090816
 H          0.1915342902       -5.9774447904        0.8883906068
 H          1.3958323742       -4.7313886217        1.4221835345
 H          0.3502741545       -5.0753491418       -1.4821992142
 H          1.5569235016       -3.8553753640       -0.9243245101
 H         -1.3410882199       -4.1745504046        0.0822641621
