  62
        -98.93970395
 C          2.6283650309        1.3264936284        0.3150189214
 C          2.8677298254        0.5112062778       -0.8185980230
 C          3.8978984739       -0.5285058266       -0.6560032970
 C          4.5395830311       -0.6535997243        0.5189697621
 C          5.5629025316       -1.7048995074        0.8342931384
 C          4.9084042469       -2.9530845403        1.4427566435
 C          3.7037103099       -3.4656955880        0.6535264722
 H          3.3441757796       -4.3656920806        1.1568921032
 H          2.9013596099       -2.7259584150        0.7068145992
 C          3.9995749038       -3.7870420820       -0.8181508738
 H          5.0746004790       -3.8965814788       -0.9650659424
 H          3.5391936914       -4.7454930620       -1.0671997211
 C          3.4553213467       -2.7605558307       -1.8134331322
 H          2.3965858188       -2.5796310444       -1.6100722214
 H          3.5257305283       -3.1890252635       -2.8169222278
 C          4.1793306664       -1.4083867789       -1.8419964898
 H          3.8193932783       -0.8580481790       -2.7164702782
 H          5.2532320870       -1.5689165990       -1.9561402370
 H          4.5763524198       -2.7111683754        2.4549368578
 H          5.6622783527       -3.7394243307        1.5108453996
 H          6.0977235673       -1.9688246577       -0.0760006499
 H          6.2707470908       -1.2895425884        1.5534848944
 O          4.2876165855        0.1489875436        1.5836731798
 C          3.3320808440        1.1464662297        1.5105365067
 O          3.2047460788        1.8077915941        2.5599199282
 O          2.2633000989        0.6224743830       -1.9178613566
 C          1.6128807207        2.4585053493        0.3294136731
 C          0.2268304519        1.9523620124        0.6367614158
 C         -0.5434769270        2.5358577748        1.6354077718
 C         -1.8226751208        2.0759736494        1.8964492225
 C         -2.3576263718        1.0268726476        1.1705932867
 C         -1.5962347890        0.4369071006        0.1699664796
 C         -0.3147928456        0.9007596219       -0.0898391999
 H          0.2685484833        0.4492559313       -0.8790971900
 N         -2.1260745767       -0.6367936599       -0.5687879637
 S         -3.6264347092       -0.4129848553       -1.2920235464
 O         -3.6576237128       -1.3394400996       -2.4021593949
 O         -3.8567972343        0.9779007268       -1.6079171828
 C         -4.7817269439       -0.9570039836       -0.0512440865
 C         -5.8073398149       -0.1227510298        0.3482013375
 C         -6.7011541053       -0.5721624520        1.3079532618
 C         -6.5544781153       -1.8409233339        1.8473309113
 C         -5.5204195407       -2.6675344439        1.4332310150
 C         -4.6244710600       -2.2250448648        0.4732503475
 H         -3.8094997360       -2.8361401694        0.1225745556
 H         -5.4093826916       -3.6534460304        1.8551741729
 H         -7.2499549048       -2.1879882379        2.5951073635
 H         -7.5058275297        0.0685690048        1.6309718122
 H         -5.8776777724        0.8579903719       -0.0945495385
 H         -1.4709834326       -1.0188478871       -1.2364335430
 H         -3.3532148734        0.6651047649        1.3694097233
 H         -2.4096767811        2.5381315122        2.6752822496
 H         -0.1291497987        3.3487822126        2.2137123783
 H          1.9207551717        3.1050826548        1.1659205536
 C          1.6632291280        3.3069157807       -0.9361553048
 C          0.5603581930        3.3717524776       -1.9459043045
 C          0.8160288449        4.5401072084       -1.0448052580
 H          1.2522612227        5.4346264813       -1.4626767218
 H          0.1024657619        4.7220723452       -0.2551959723
 H          0.8406981720        3.4432891021       -2.9860404647
 H         -0.3305891175        2.7852563367       -1.7809803354
 H          2.6719139563        3.3779490911       -1.3309042218
