  62
        -98.94546901
 C          1.6634511211        0.9239181195        0.1185817403
 C          2.6657398908        0.6070096893        1.0650320605
 C          3.3426157508       -0.6837550707        0.8774195504
 C          2.9526807610       -1.4914373905       -0.1258031999
 C          3.5893360910       -2.8080581705       -0.4623927100
 C          4.7154203213       -2.6309375203       -1.4907541296
 C          5.7068840613       -1.5224582905       -1.1367072391
 H          6.4718488015       -1.5096572504       -1.9160238989
 H          5.1937717214       -0.5587695404       -1.1744711091
 C          6.3779877009       -1.6846427808        0.2344053610
 H          6.2749595207       -2.7145431809        0.5783551908
 H          7.4461814510       -1.4845059209        0.1273280014
 C          5.8542502807       -0.7356734010        1.3141165111
 H          6.5356436104       -0.7826293412        2.1678451613
 H          5.8709331109        0.2908582691        0.9390306113
 C          4.4437797005       -1.0343347110        1.8379836806
 H          4.3770460704       -2.0820926411        2.1388782504
 H          4.2792494003       -0.4124907912        2.7231847407
 H          4.2668092416       -2.3924395901       -2.4577783097
 H          5.2465702713       -3.5795863103       -1.5873703197
 H          3.9810231107       -3.2606766807        0.4465853300
 H          2.8250374811       -3.4639706503       -0.8828744703
 O          1.9525213913       -1.1740359002       -0.9865859401
 C          1.2969168013        0.0491070298       -0.9048110600
 O          0.4246567116        0.2213355900       -1.7733730502
 H         -0.3126719793        0.3548632994        1.6182314596
 C         -1.0209088491        1.0097532195        1.1250435096
 C         -0.5470551089        2.0592966096        0.3482968399
 C         -1.4724300286        2.8885294998       -0.2731891702
 C         -2.8305978587        2.6661409899       -0.1219549806
 C         -3.2970007490        1.6117344298        0.6406804391
 C         -2.3797454592        0.7734366796        1.2619308191
 N         -2.8404746695       -0.3234032805        2.0099795688
 S         -4.0640918294       -1.2526556503        1.3425314283
 O         -5.3412404094       -0.6775139203        1.6874122080
 O         -3.8311060096       -2.5930595104        1.8357090580
 C         -3.8388854889       -1.1819035100       -0.4266679217
 C         -4.9017787686       -0.8209937997       -1.2299127919
 C         -4.7125904682       -0.7526044894       -2.6006580518
 C         -3.4669587181       -1.0333517694       -3.1404586715
 C         -2.4094110984       -1.3971236897       -2.3212215913
 C         -2.5970886187       -1.4784318299       -0.9515786514
 H         -1.7847382989       -1.7552603101       -0.2978196112
 H         -1.4310396983       -1.5885648296       -2.7312987311
 H         -3.3143964678       -0.9658299092       -4.2060254415
 H         -5.5326981681       -0.4717096293       -3.2415592020
 H         -5.8479739187       -0.5952525898       -0.7654771021
 H         -2.1030604896       -0.9073643207        2.3760967289
 H         -4.3508829690        1.4225518498        0.7665809687
 H         -3.5364463285        3.3199920001       -0.6104060006
 H         -1.1297577984        3.7096767799       -0.8807937399
 C          0.9443207512        2.2553864696        0.2247331404
 H          1.3074738510        2.7106027793        1.1588853906
 C          1.3357570816        3.1494056298       -0.9348015993
 C          1.4204055416        4.6351753397       -0.7574029290
 C          2.6726705216        3.8256001497       -0.9032842988
 H          3.2357630919        3.9014164198       -1.8214475487
 H          3.2860858514        3.6679439495       -0.0278573987
 H          1.1253105019        5.2703459399       -1.5789889890
 H          1.1902603514        5.0376866096        0.2175099310
 H          0.9920998618        2.7642816500       -1.8883896995
 O          2.9764156806        1.3650062090        2.0242736407
