  62
        -98.94847969
 C          0.8325598521        1.2115233974        0.5690231712
 C          1.2070706783        0.5308140511       -0.6141201595
 C          2.1504370083       -0.5796319047       -0.4307067824
 C          2.4812170923       -0.9754351965        0.8112142781
 C          3.4277018984       -2.0914562652        1.1617562635
 C          4.9006615327       -1.6594548566        1.1896726140
 C          5.5244570861       -1.4026337217       -0.1829057234
 H          5.3505498955       -2.2654585410       -0.8263770339
 H          6.6027845766       -1.3200472200       -0.0330974015
 C          5.0243111138       -0.1291113581       -0.8793110795
 H          5.8766517362        0.4225793457       -1.2824270512
 H          4.5416999793        0.5216302500       -0.1462732531
 C          4.0561873253       -0.3756564586       -2.0369165237
 H          4.5714889837       -0.9144858096       -2.8349121215
 H          3.7446028655        0.5944265715       -2.4319331715
 C          2.7935300917       -1.1602724364       -1.6531750517
 H          3.0392443273       -2.2095266870       -1.4970057056
 H          2.0760464751       -1.0792352509       -2.4723042840
 H          5.4661415640       -2.4554899560        1.6797706449
 H          4.9901129916       -0.7617139780        1.8059890045
 H          3.3086097485       -2.9161371156        0.4590771691
 H          3.1496141803       -2.4369138345        2.1599066509
 O          1.9686558130       -0.3906809348        1.9287325183
 C          1.1927224548        0.7541518405        1.8355930379
 O          0.8847684330        1.2590379555        2.9357703549
 O          0.7990675384        0.8454994453       -1.7607777329
 C          0.0185583943        2.4891589872        0.4802175142
 C         -1.3079955436        2.2332601637       -0.1900667111
 C         -1.8086996231        3.0151626364       -1.2229511757
 C         -3.0464934817        2.7350242932       -1.7750414027
 C         -3.8079550790        1.6792777399       -1.3100162751
 C         -3.3196121592        0.8976500934       -0.2681603112
 C         -2.0788471318        1.1772924195        0.2808309105
 H         -1.7097951815        0.5727232074        1.0974165744
 N         -4.0798122346       -0.1638001227        0.2430131569
 S         -3.3521088084       -1.5008933919        0.9105330045
 O         -4.3861403771       -2.5154383608        0.8805172908
 O         -2.8238749865       -1.1950663800        2.2170659082
 C         -2.0376165773       -1.9974264182       -0.1885031302
 C         -2.2121723760       -1.9106001971       -1.5551047107
 C         -1.2227764733       -2.4041377037       -2.3894171079
 C         -0.0911588703       -2.9921628833       -1.8484232334
 C          0.0715711153       -3.0683080016       -0.4745944272
 C         -0.9066352680       -2.5611423252        0.3644473346
 H         -0.8121136569       -2.5880499542        1.4391909028
 H          0.9509705921       -3.5240358828       -0.0497137698
 H          0.6690616971       -3.3923279461       -2.5000199640
 H         -1.3403447100       -2.3324558509       -3.4585511989
 H         -3.1059703612       -1.4622162269       -1.9568392431
 H         -4.9175192087       -0.3924142127       -0.2708651788
 H         -4.7737978139        1.4620995000       -1.7396326620
 H         -3.4224620047        3.3467707939       -2.5807611603
 H         -1.2299719110        3.8425371179       -1.5983116724
 H         -0.1856326012        2.7906850873        1.5186134767
 C          0.8410851078        3.5709563135       -0.1903666368
 C          0.6150464049        5.0127629977        0.1480756550
 C          1.8537833489        4.3164376119        0.6238104789
 H          2.7986247118        4.5705804933        0.1671674361
 H          1.9304706553        4.0626625017        1.6716062831
 H          0.7129549272        5.7492667140       -0.6351184648
 H         -0.1477281897        5.2413610267        0.8770285875
 H          1.1093229503        3.3183941476       -1.2097496054
