  62
        -98.94854430
 C          1.5866489665        1.0722823810        0.8544659374
 C          2.5498447990        0.4938913945       -0.0069550069
 C          2.9511311086       -0.8807079288        0.3145061817
 C          2.3840705534       -1.5203058247        1.3525867018
 C          2.6663650720       -2.9330139192        1.7853688732
 C          1.8772273921       -3.9823234998        0.9898489354
 C          2.3787127976       -4.2309385163       -0.4334025272
 H          3.4557204804       -4.4043217348       -0.4169012621
 H          1.9041305936       -5.1503579992       -0.7825438711
 C          2.0479950927       -3.1050942330       -1.4234388695
 H          1.6699026109       -3.5400338023       -2.3524697906
 H          1.2421467416       -2.4878719511       -1.0181266960
 C          3.2329008423       -2.2122371476       -1.7932900125
 H          3.9718272831       -2.7965097809       -2.3475227865
 H          2.8678561146       -1.4177406843       -2.4495590395
 C          3.9319427336       -1.5535358054       -0.5977708595
 H          4.6084056795       -0.7852423097       -0.9812174192
 H          4.5155987099       -2.2927420649       -0.0493282234
 H          1.9313200638       -4.9231250954        1.5432086940
 H          0.8288888604       -3.6749452494        0.9492368799
 H          3.7343492982       -3.1389933823        1.7066644061
 H          2.3738448988       -3.0031241334        2.8353481000
 O          1.4656162539       -0.9294886862        2.1601821750
 C          1.0206636973        0.3576790483        1.9093713833
 O          0.1337318127        0.7530389571        2.6954652905
 O          3.0542309609        1.0878459928       -0.9959766541
 C          1.0109029724        2.4468759138        0.5460163295
 C          0.2729867902        2.3174636103       -0.7657111754
 C          0.5633839178        3.0463149219       -1.9094066144
 C         -0.0905363958        2.7604432621       -3.0970098777
 C         -1.0195040407        1.7395433202       -3.1718554003
 C         -1.3325807944        1.0174752375       -2.0232601905
 C         -0.7138410487        1.3402621888       -0.8291443264
 H         -0.9532394451        0.7830072154        0.0628290446
 N         -2.2726897979       -0.0190948342       -2.0571048583
 S         -2.2829647198       -1.2717018452       -0.9478993870
 O         -0.9664754297       -1.5866208857       -0.4478726048
 O         -2.9706392237       -2.3416063008       -1.6416903552
 C         -3.3489691669       -0.6603654792        0.3398019060
 C         -4.6704679781       -0.4343367772        0.0028727650
 C         -5.5385421847        0.0469774354        0.9679237895
 C         -5.0730206489        0.2957446237        2.2510186452
 C         -3.7461836393        0.0619184553        2.5743527692
 C         -2.8727198469       -0.4234372590        1.6123335012
 H         -1.8332178685       -0.6023231962        1.8429175205
 H         -3.3734304234        0.2578282913        3.5671341602
 H         -5.7466625025        0.6729248810        3.0042599430
 H         -6.5718125690        0.2281972778        0.7193976403
 H         -4.9910601879       -0.6500440664       -1.0026584931
 H         -2.5692930605       -0.3096873588       -2.9761222785
 H         -1.4958933290        1.4949549737       -4.1089625177
 H          0.1475068970        3.3259184389       -3.9853494707
 H          1.3144066707        3.8183085366       -1.8798869378
 H          0.2780122928        2.6575314886        1.3378253719
 C          2.0758266209        3.5199502846        0.5595234231
 C          1.6889443488        4.9499360832        0.7852725123
 C          2.4143677699        4.1918155663        1.8549972094
 H          3.4470072302        4.4364038427        2.0534519627
 H          1.8623188360        3.8872300186        2.7323706374
 H          2.2246482942        5.7198468241        0.2510841932
 H          0.6423959170        5.1655007495        0.9386820900
 H          2.8915549576        3.3098531211       -0.1215223543
