  62
        -98.93951225
 C         -2.1380507497       -0.9786221504        0.0212772704
 C         -2.8858273499       -0.3437133810        1.0380510106
 C         -3.6617218902        0.8454356989        0.6444036609
 C         -3.6028008803        1.2795507994       -0.6286507689
 C         -4.2460705706        2.4730344595       -1.3040742485
 C         -5.3923476509        3.2273987489       -0.6348182083
 C         -6.6898953206        2.4312969084       -0.4989940486
 H         -7.1100804305        2.2797531787       -1.4963929087
 H         -7.3998699008        3.0323470080        0.0732665015
 C         -6.5569235803        1.0595897882        0.1578160809
 H         -5.9308300600        0.4150075087       -0.4625265293
 H         -7.5516139701        0.6069382379        0.1901590406
 C         -6.0038832503        1.0671815779        1.5815445909
 H         -6.1150593101        0.0562048077        1.9825056205
 H         -6.5969987906        1.7404820075        2.2032666311
 C         -4.5208895805        1.4557832583        1.7142399611
 H         -4.1521140204        1.0607762880        2.6654936310
 H         -4.3944577108        2.5356397483        1.7391650115
 H         -5.6023026511        4.0949776390       -1.2663695080
 H         -5.0778014910        3.6116202386        0.3310658819
 H         -4.5778196804        2.1148288997       -2.2838575986
 H         -3.4308916608        3.1799363798       -1.4963165482
 O         -2.8302012000        0.6563955600       -1.5672466691
 C         -2.0913959197       -0.4799584199       -1.2792314894
 O         -1.4535476595       -0.9366018694       -2.2460937496
 O         -2.8980347398       -0.7451717314        2.2337105204
 C         -1.3348730493       -2.2215259903        0.3588630800
 C          0.1306205906       -1.9766387798        0.0955992501
 C          0.9368007309       -2.8427006393       -0.6304595901
 C          2.2711250009       -2.5424136388       -0.8453870399
 C          2.8315929205       -1.3856359188       -0.3366523895
 C          2.0355308802       -0.5143725193        0.3958975008
 C          0.7004036403       -0.8179493298        0.6097692906
 H          0.0797814200       -0.1352309802        1.1779988408
 N          2.5974472698        0.6563727907        0.9356045812
 S          3.5058725796        1.6421099713       -0.0759155284
 O          3.4366320092        2.9577507411        0.5235155721
 O          3.0767172197        1.5402652617       -1.4515608984
 C          5.1623388598        1.0126411417        0.1008383015
 C          5.6829984797        0.8960973614        1.3748990915
 C          6.9735444298        0.4154404617        1.5284402714
 C          7.7184647300        0.0648655724        0.4121536713
 C          7.1825561100        0.1911207627       -0.8602604487
 C          5.8915908799        0.6703408623       -1.0209337086
 H          5.4301392699        0.7791599726       -1.9896567586
 H          7.7627631902       -0.0816203468       -1.7270605187
 H          8.7226109501       -0.3093264874        0.5343875612
 H          7.3935485498        0.3155097115        2.5163235514
 H          5.0720556696        1.1813671109        2.2149243316
 H          1.9424616196        1.2081855903        1.4708880814
 H          3.8682444504       -1.1462714984       -0.5082485693
 H          2.8840334311       -3.2205014284       -1.4193135102
 H          0.5188575112       -3.7477356492       -1.0391119205
 H         -1.4667406993       -2.3691674707        1.4412488799
 C         -1.8940662389       -3.4257281902       -0.3685661305
 C         -1.7448785985       -4.7974198304        0.2165648090
 C         -3.0854461587       -4.1283211908        0.2079144192
 H         -3.8438816786       -4.4955233607       -0.4671049610
 H         -3.4781341989       -3.7526631312        1.1415893193
 H         -1.5848781883       -5.6288727001       -0.4530072513
 H         -1.2284552086       -4.8839317705        1.1603983990
 H         -1.8502980689       -3.3174702998       -1.4465977405
