  62
        -98.93904781
 C         -2.1208036210       -0.8869704396        0.3619561855
 C         -2.7990038652       -0.0421728030        1.2766389024
 C         -3.2711435990        1.2442974969        0.7487042138
 C         -2.9812930151        1.5766451559       -0.5222221645
 C         -3.4285298731        2.8373010983       -1.2024818926
 C         -4.7733955274        2.6386158602       -1.9154961642
 C         -5.8435062927        1.9823440145       -1.0429348257
 H         -6.7561903482        1.9210670877       -1.6394065083
 H         -5.5387065466        0.9579845893       -0.8165308851
 C         -6.1374321776        2.7251917527        0.2679340433
 H         -5.7666337672        3.7487580887        0.2041843526
 H         -7.2194478097        2.7797778892        0.4040192264
 C         -5.5647454331        2.0561054570        1.5188245781
 H         -5.8571628136        1.0031704666        1.5373834951
 H         -6.0104734066        2.5346962390        2.3947177306
 C         -4.0415386630        2.1366265333        1.6810338857
 H         -3.7144364965        3.1735191546        1.5790452430
 H         -3.7955958854        1.7961613816        2.6912530687
 H         -5.1276516979        3.6118903519       -2.2597834484
 H         -4.6098006568        2.0069082906       -2.7917231951
 H         -3.5105245785        3.6321382847       -0.4633781633
 H         -2.6716763982        3.1154130582       -1.9382505080
 O         -2.2720908610        0.7709903830       -1.3523234730
 C         -1.8238808423       -0.4779451153       -0.9398660238
 O         -1.1878100278       -1.0966704556       -1.8131705256
 H          0.3322717100       -0.4982844501        1.3717981599
 C          0.7149417675       -1.3633262883        0.8411453196
 C         -0.1601961654       -2.3879304691        0.5005972883
 C          0.3444574930       -3.4819633948       -0.1882681641
 C          1.6835636442       -3.5348333069       -0.5370948513
 C          2.5450187320       -2.5038335878       -0.2119510643
 C          2.0498454145       -1.4060432596        0.4778410989
 N          2.9199767050       -0.3341650801        0.7946023873
 S          3.3825880070        0.6467319899       -0.5058642633
 O          2.5612400174        1.8414167821       -0.5054567307
 O          3.4049491161       -0.1322429612       -1.7160639337
 C          5.0474596619        1.0720590042       -0.0311488350
 C          6.0529339183        0.1574465674       -0.2766839904
 C          7.3454090063        0.4580646181        0.1215081616
 C          7.6091802205        1.6616426917        0.7584593130
 C          6.5896321520        2.5701382481        0.9977518470
 C          5.2944219746        2.2739944364        0.6022660902
 H          4.4727410184        2.9537723493        0.7601728600
 H          6.7974146683        3.5063356432        1.4905520496
 H          8.6159840909        1.8940511286        1.0677284257
 H          8.1408636174       -0.2452539963       -0.0652063863
 H          5.8026786406       -0.7600682906       -0.7831077994
 H          2.5128769039        0.2759182154        1.4920700673
 H          3.5818018205       -2.5251156233       -0.5038344539
 H          2.0578188415       -4.3888047561       -1.0811427170
 H         -0.3156113612       -4.2821484672       -0.4803508409
 C         -1.6099736868       -2.2198255961        0.8820683258
 H         -1.6607343347       -2.1179826604        1.9797795406
 C         -2.4796334137       -3.4141343230        0.5207706935
 C         -3.9351999021       -3.2427306844        0.2072426058
 C         -2.9794540454       -3.6487877471       -0.8721159283
 H         -3.0222870439       -4.6648960111       -1.2363498901
 H         -2.7116241466       -2.9254306411       -1.6260873221
 H         -4.6315937696       -3.9764348915        0.5845307170
 H         -4.3278256634       -2.2362401056        0.1890913328
 H         -2.2164435885       -4.2954279667        1.0974858836
 O         -2.9895413839       -0.3472553233        2.4848198636
