  62
        -98.93546985
 C         -2.5089242931       -0.8457737481        0.7750203267
 C         -2.8627424096       -0.3926238204       -0.5205393305
 C         -3.6444446012        0.8545727874       -0.5708489884
 C         -3.9486508419        1.4958170098        0.5711050874
 C         -4.6926004592        2.7963300746        0.6563053401
 C         -3.7282597760        3.9905820012        0.6366327777
 C         -2.6921603927        3.9298171618       -0.4859147030
 H         -2.0877569354        4.8370412356       -0.4199234521
 H         -2.0229842100        3.0842473027       -0.3098124960
 C         -3.2891220532        3.8151940105       -1.8954842254
 H         -2.7642345883        4.5088186573       -2.5556522171
 H         -4.3377954275        4.1143510631       -1.8793855440
 C         -3.1688380675        2.4257390080       -2.5245089482
 H         -2.1334448550        2.0807191814       -2.4610499933
 H         -3.4198909923        2.5100391594       -3.5852566054
 C         -4.0739963298        1.3416329573       -1.9261910730
 H         -5.1061379725        1.6972272540       -1.8986547740
 H         -4.0270915381        0.4708293030       -2.5868007233
 H         -4.3150944282        4.9061189559        0.5433263482
 H         -3.1977441345        4.0225395541        1.5911072074
 H         -5.3898321020        2.8646530036       -0.1764266264
 H         -5.2549944370        2.8101025655        1.5914960219
 O         -3.5580886020        1.0510823709        1.7931958848
 C         -2.8209781781       -0.1140489738        1.9237425853
 O         -2.5002443774       -0.3850928585        3.0987903396
 H          0.3434453900       -0.4501572421        0.9796680723
 C          0.4564987173       -1.1933509784        0.1987017805
 C         -0.5321313303       -2.1578385114        0.0425135851
 C         -0.3797401666       -3.1078835939       -0.9575431771
 C          0.7290954471       -3.0788505166       -1.7853878353
 C          1.7057061204       -2.1125184526       -1.6335201710
 C          1.5663433488       -1.1596580891       -0.6323056402
 N          2.5509898617       -0.1635355054       -0.4762789797
 S          4.1594510045       -0.6851167946       -0.5233977243
 O          4.5625507267       -0.7947932102       -1.9029180972
 O          4.3158617161       -1.8793794377        0.2765243274
 C          5.0001729639        0.6881946800        0.2395684098
 C          5.2833820348        1.8036798823       -0.5256460620
 C          5.9246613666        2.8781211699        0.0698771694
 C          6.2699861558        2.8197895831        1.4120438598
 C          5.9797231398        1.6931198000        2.1666886963
 C          5.3370788824        0.6154283792        1.5778195934
 H          5.1002019514       -0.2840582568        2.1233953000
 H          6.2519117480        1.6492545071        3.2089959359
 H          6.7714460074        3.6563247304        1.8725710711
 H          6.1544156203        3.7550393866       -0.5135485576
 H          5.0059452086        1.8000762463       -1.5667727857
 H          2.3840343589        0.4070451830        0.3415970485
 H          2.5750693533       -2.0846869889       -2.2706401306
 H          0.8333682780       -3.8190761212       -2.5645779276
 H         -1.1404765820       -3.8565495704       -1.1050391133
 C         -1.7083382510       -2.1196281733        0.9875058469
 H         -1.3079190402       -2.0331755038        2.0114436081
 C         -2.5411676769       -3.3925819529        0.9617387630
 C         -3.9607213001       -3.3899528103        1.4433326858
 C         -3.6619460364       -3.6107204536       -0.0076017751
 H         -3.8001436674       -4.6028607798       -0.4122521601
 H         -3.8815968692       -2.8205724441       -0.7073926814
 H         -4.3847682912       -2.4418471034        1.7413500490
 H         -4.3040060588       -4.2261204656        2.0337367272
 H         -1.9478352707       -4.2636705034        1.2235215536
 O         -2.5556818882       -0.9857403116       -1.5855160580
