  62
        -98.93875830
 C         -1.0783279000       -1.7335858393        0.3546488217
 C         -1.4135789099       -0.5340959587        1.0294656608
 C         -2.7221988699        0.0743089911        0.7216757303
 C         -3.5036868099       -0.5121015096       -0.2039979592
 C         -4.8515734499       -0.0709835899       -0.7115020795
 C         -4.7651793999        1.1279257893       -1.6674711705
 C         -3.8621799498        2.2603995196       -1.1876464615
 H         -2.8513397998        1.8741234497       -1.0476565012
 H         -3.8216310598        3.0093901090       -1.9827869521
 C         -4.3244560697        2.9563864207        0.0905472280
 H         -5.3434668597        3.3237578007       -0.0490268123
 H         -3.6798790396        3.8254420608        0.2427396272
 C         -4.2803528497        2.1105446418        1.3660651887
 H         -5.1446241297        1.4551571919        1.4367923292
 H         -4.3448628896        2.7972442825        2.2150818181
 C         -2.9992212797        1.3037592619        1.5522787093
 H         -2.1315975497        1.9588170617        1.4208774887
 H         -2.9488499197        0.9663232227        2.5947246496
 H         -4.3765539399        0.7709601585       -2.6242788202
 H         -5.7750364299        1.5070984192       -1.8341363708
 H         -5.2726618500       -0.9198158703       -1.2549006288
 H         -5.5124160699        0.1482363408        0.1218821303
 O         -3.1185283900       -1.6405285301       -0.8637032083
 C         -1.9209067601       -2.2840390500       -0.6108490178
 O         -1.7477948601       -3.3072258306       -1.3004690069
 O         -0.6529494098        0.0116920720        1.8744111103
 C          0.2499084000       -2.3812533491        0.7096163922
 C          1.2807225400       -2.0298311400       -0.3348248081
 C          1.3552469899       -2.6930357010       -1.5552317675
 C          2.3033383399       -2.3235688319       -2.4918260979
 C          3.1870731300       -1.2898775117       -2.2362713088
 C          3.1152724300       -0.6166221407       -1.0215745993
 C          2.1657043000       -0.9904140198       -0.0812364090
 H          2.1174935501       -0.4644607390        0.8607184206
 N          4.0055089601        0.4241796995       -0.7354562302
 S          3.6915102702        1.6018052005        0.3932948588
 O          4.6526957303        2.6412466701        0.0863714079
 O          3.7734126802        1.0572685416        1.7256391692
 C          2.0542190803        2.2386204203        0.0786457783
 C          1.3594030003        2.7786323012        1.1412217479
 C          0.1367315604        3.3858510111        0.9076801674
 C         -0.3735887697        3.4339405201       -0.3797549626
 C          0.3277342902        2.8722166092       -1.4345182921
 C          1.5582379102        2.2765403993       -1.2088524617
 H          2.1214143302        1.8428263886       -2.0191737113
 H         -0.0781357198        2.9006453183       -2.4332386722
 H         -1.3240210097        3.9097123500       -0.5636514430
 H         -0.4094952396        3.8186173918        1.7309889071
 H          1.7837224104        2.7079470220        2.1297962279
 H          4.5819632801        0.7453523688       -1.4977624705
 H          3.9288709699       -1.0061453724       -2.9669949590
 H          2.3535525398       -2.8456387426       -3.4353206574
 H          0.6510418098       -3.4799858911       -1.7725241969
 H          0.5596411901       -1.9028417783        1.6491291418
 C          0.1479245799       -3.8745666089        0.9433758235
 C          1.2580345899       -4.5673097483        1.6733009240
 C         -0.0744624301       -4.3843417277        2.3342156939
 H         -0.7070450901       -5.2487024975        2.4704551747
 H         -0.1536214600       -3.6563791970        3.1287226433
 H          1.5441561898       -5.5585689786        1.3570065648
 H          2.0821174299       -3.9603411881        2.0181666035
 H         -0.3391514102       -4.4103077595        0.1395810740
