  62
        -98.94467797
 C         -2.5762329187        0.1692827686        0.3567399613
 C         -2.1608183755        0.7081951274       -0.8853464237
 C         -1.6931345541        2.1012055855       -0.8538259513
 C         -1.6689933375        2.7629280196        0.3169451777
 C         -1.1983667487        4.1770840262        0.4979582435
 C          0.2917757365        4.2386175370        0.8569260165
 C          1.1904078852        3.4202346740       -0.0707462763
 H          2.2228072519        3.5945290301        0.2429668070
 H          0.9942821757        2.3552934174        0.0790317047
 C          1.0456554887        3.7553750991       -1.5617243117
 H          0.5822169403        4.7363043360       -1.6794794412
 H          2.0433460768        3.8100453154       -2.0020582233
 C          0.2619966221        2.7167263938       -2.3671188020
 H          0.4421598922        2.9014002762       -3.4298283617
 H          0.6413655822        1.7187362923       -2.1336156390
 C         -1.2573389788        2.7148656963       -2.1539614436
 H         -1.6473295924        3.7308675771       -2.2519928682
 H         -1.7025201139        2.0964537274       -2.9388922846
 H          0.4205864985        3.8591565565        1.8735661912
 H          0.6055002866        5.2845268597        0.8399821952
 H         -1.3842987913        4.7330939361       -0.4190498852
 H         -1.7753208989        4.6262894568        1.3086998202
 O         -2.0600852760        2.2055196056        1.4933650230
 C         -2.4968632419        0.8929704045        1.5445950729
 O         -2.7942026818        0.4924392805        2.6911313110
 H         -0.4797454665       -1.0423021803        1.1409855350
 C         -0.6295427440       -1.8945227952        0.4892310960
 C         -1.9050346230       -2.1828445502        0.0180812239
 C         -2.0649385565       -3.2914119680       -0.8022755808
 C         -0.9738102391       -4.0671319568       -1.1593283805
 C          0.2987925857       -3.7489789357       -0.7206961863
 C          0.4644807835       -2.6512695866        0.1128754823
 N          1.7756107183       -2.2648003589        0.5279824661
 S          2.0601755897       -0.6081055856        0.4891295940
 O          1.7320602479        0.0176683631        1.7569775846
 O          1.4312818020       -0.0764112187       -0.6913500718
 C          3.8302910534       -0.6072278296        0.2737910963
 C          4.3304600136       -1.0347025385       -0.9412378200
 C          5.7029153124       -1.0774457273       -1.1243539278
 C          6.5491181538       -0.6941057465       -0.0940159982
 C          6.0328364012       -0.2654943557        1.1189392397
 C          4.6598655631       -0.2222748988        1.3080739679
 H          4.2127831327        0.1074316127        2.2322791920
 H          6.6921888211        0.0339867525        1.9176868562
 H          7.6174475607       -0.7286132795       -0.2382029971
 H          6.1076124352       -1.4086097849       -2.0671795592
 H          3.6322426084       -1.3150313137       -1.7128384443
 H          2.0456157519       -2.6490244536        1.4228376865
 H          1.1569888221       -4.3310574707       -1.0142200966
 H         -1.1172313713       -4.9214971573       -1.8030901539
 H         -3.0458160868       -3.5427845067       -1.1721747385
 C         -3.0355889258       -1.2758143894        0.4410518510
 H         -3.2416318086       -1.4656286018        1.5057012133
 C         -4.3099335101       -1.4860021640       -0.3491305178
 C         -5.2939393377       -2.5349888042        0.0717384444
 C         -5.6152295603       -1.0846656918        0.2671954607
 H         -6.3644292135       -0.6297315563       -0.3629102487
 H         -5.5850375750       -0.6819117659        1.2695331318
 H         -5.8286913437       -3.0766649938       -0.6936852841
 H         -5.0565579151       -3.1216369388        0.9463873520
 H         -4.1765118991       -1.2983269911       -1.4080414953
 O         -2.1990449220        0.0658304041       -1.9669333180
