  62
        -98.93859138
 C          1.7734738683        0.4665374554       -0.3996033095
 C          2.8437143435        1.2043130233        0.1541599730
 C          4.2074330254        0.7090882754       -0.1160873962
 C          4.3549272043       -0.3967718825       -0.8693943637
 C          5.6314087126       -1.1033012331       -1.2405156040
 C          6.2063197961       -1.9339638443       -0.0809150429
 C          6.1744743278       -1.2466369699        1.2818800830
 H          5.1459499442       -0.9673300244        1.5176180441
 H          6.4907892041       -1.9783764463        2.0300104512
 C          7.0774480284       -0.0227526514        1.4154631946
 H          7.0094572862        0.3195363844        2.4512907063
 H          8.1123447059       -0.3203711218        1.2319031904
 C          6.7440750432        1.1578199338        0.5015243321
 H          7.0801616894        0.9716149815       -0.5148939562
 H          7.3129791964        2.0194647020        0.8632348597
 C          5.2766748849        1.5753871742        0.5053643056
 H          4.9573612549        1.7501564405        1.5390458894
 H          5.1917020350        2.5500443325        0.0095433863
 H          5.6197137575       -2.8526145836       -0.0026683018
 H          7.2327021489       -2.2094587265       -0.3288798104
 H          5.3879467989       -1.7784313211       -2.0638712487
 H          6.3612546711       -0.3866492631       -1.6053307589
 O          3.2904201369       -1.0776985696       -1.3832878803
 C          1.9844190599       -0.6774291490       -1.1677736604
 O          1.1265011758       -1.4056330629       -1.7025527680
 H         -2.0235730458       -0.3054446228       -0.8922676365
 C         -1.6149017965       -0.6668937023        0.0361854102
 C         -0.4309508252       -0.1513959328        0.5380827931
 C          0.0679840489       -0.6650687603        1.7338681004
 C         -0.5880246651       -1.6831830822        2.3956232078
 C         -1.7645705187       -2.2046587331        1.8856390733
 C         -2.2750251869       -1.6952621761        0.6983740626
 N         -3.4603456382       -2.2116726288        0.1610232725
 S         -4.5129519287       -1.2577698489       -0.7056565070
 O         -5.7807450242       -1.9510874282       -0.6111269688
 O         -4.0239256209       -1.0325652076       -2.0426469422
 C         -4.6097656201        0.2941250050        0.1720951940
 C         -4.7124131129        0.2886107355        1.5492310367
 C         -4.8013500864        1.4980521245        2.2191182100
 C         -4.7939465509        2.6869965255        1.5059468137
 C         -4.7008250474        2.6760772803        0.1232825830
 C         -4.6074373889        1.4689476653       -0.5508979233
 H         -4.5265883333        1.4132568471       -1.6244346845
 H         -4.6966542953        3.6005061890       -0.4317486834
 H         -4.8615241637        3.6270550783        2.0303925246
 H         -4.8750691957        1.5095016535        3.2946129524
 H         -4.7212248731       -0.6478501975        2.0821610069
 H         -3.9348429378       -2.8987036783        0.7267295248
 H         -2.2759018639       -3.0074823401        2.3945331415
 H         -0.1840581838       -2.0752558489        3.3167588234
 H          0.9887737573       -0.2584372637        2.1292750872
 C          0.3505965601        0.9364964366       -0.1531683217
 H          0.4414825239        1.7874296016        0.5380254264
 C         -0.2724522178        1.4237644126       -1.4430255410
 C         -1.3547197143        2.4592706747       -1.4125963786
 C          0.0156202554        2.8221737586       -1.8981169379
 H          0.1612000065        3.0017849993       -2.9528014469
 H          0.6416467819        3.4297182547       -1.2610632398
 H         -2.1507336951        2.3863356271       -2.1376907404
 H         -1.6680555789        2.8265621933       -0.4471980920
 H         -0.3241125850        0.6516538149       -2.2032183086
 O          2.6729561643        2.2357717646        0.8591929989
