  62
        -98.94563772
 C          2.5039741765        1.1592327501       -0.0109256985
 C          3.1059066214        0.2860248312        0.9262457895
 C          3.6800196100       -0.9471763720        0.3786415555
 C          3.6077948041       -1.1865399366       -0.9435902677
 C          4.1563976291       -2.3935589190       -1.6549594967
 C          3.2129256597       -3.6042735826       -1.6401822769
 C          3.0873751265       -4.3137708063       -0.2913277844
 H          4.0819933519       -4.5495935881        0.0885390589
 H          2.5736176043       -5.2597289025       -0.4733132497
 C          2.3039771501       -3.5253462097        0.7679583223
 H          1.5874476821       -4.1876596608        1.2601714490
 H          1.7197521428       -2.7401935911        0.2796286051
 C          3.1720153461       -2.9000322483        1.8607736667
 H          3.6543737415       -3.6904607148        2.4398707596
 H          2.5207261499       -2.3387768087        2.5361432527
 C          4.2537336914       -1.9438630095        1.3403089399
 H          5.0590328969       -2.5074638228        0.8705256143
 H          4.6600438471       -1.3912395426        2.1909117789
 H          3.5920945950       -4.3227583086       -2.3705344120
 H          2.2233894040       -3.2814548292       -1.9740750773
 H          5.1161338341       -2.6726855029       -1.2194744384
 H          4.3169715754       -2.0958949706       -2.6932748400
 O          3.0205991983       -0.3225146874       -1.8125989860
 C          2.4226329282        0.8493247355       -1.3690354464
 O          1.8770005925        1.5153310204       -2.2682054788
 O          3.1538724002        0.5226867663        2.1643471848
 C          1.8358452767        2.4261478223        0.4972965949
 C          0.3458884869        2.2841307710        0.3038005743
 C         -0.4299274627        3.1580604919       -0.4443063092
 C         -1.7823107643        2.9163251074       -0.6201547878
 C         -2.3877545669        1.8095866396       -0.0542018220
 C         -1.6212939332        0.9334152232        0.7039755900
 C         -0.2707275800        1.1795976496        0.8811530733
 H          0.3276019702        0.4909556404        1.4661393817
 N         -2.2300403629       -0.2020436968        1.2816223585
 S         -2.8642459755       -1.3165144003        0.1890817908
 O         -2.8702937741       -2.5805212692        0.8937409507
 O         -2.1533036232       -1.2853678846       -1.0693510794
 C         -4.5419666225       -0.7661393900       -0.0343862248
 C         -5.3643431111       -0.7246576237        1.0747690001
 C         -6.6719969671       -0.2926997965        0.9216810342
 C         -7.1327069336        0.0857086133       -0.3308319162
 C         -6.2952720898        0.0349108660       -1.4347958784
 C         -4.9852678571       -0.3949050106       -1.2883842915
 H         -4.2946970234       -0.4444184860       -2.1153057822
 H         -6.6549004651        0.3294613225       -2.4076149051
 H         -8.1505909804        0.4226360310       -0.4476027495
 H         -7.3261950932       -0.2516180318        1.7775840100
 H         -4.9665105123       -1.0321599118        2.0273339253
 H         -1.6216803112       -0.6833549182        1.9299623599
 H         -3.4388125907        1.6165822446       -0.1949104437
 H         -2.3723454314        3.5995003685       -1.2117322803
 H          0.0263479629        4.0191913184       -0.9035996719
 H          2.0386682952        2.4472111840        1.5782255109
 C          2.4293153011        3.6647483672       -0.1354609478
 C          2.3104439248        4.9861233587        0.5618274929
 C          3.6365748833        4.2923678667        0.4919993642
 H          4.4000468025        4.6982312436       -0.1544063861
 H          4.0244473605        3.8352766048        1.3907119834
 H          2.1647400346        5.8731302090       -0.0355563202
 H          1.7974291948        5.0040979426        1.5113789280
 H          2.3809234103        3.6479601088       -1.2178857650
