  62
        -98.93382093
 C          2.3433505823        0.5318916637       -0.3350420621
 C          3.5569992867        0.9582526842        0.2548885298
 C          4.5639327635       -0.0810248417        0.5302653215
 C          4.2844853328       -1.3639246468        0.2329927648
 C          5.0823114713       -2.6342309181        0.4427541596
 C          6.5655787236       -2.5763462251        0.7980090019
 C          7.4687269015       -2.0479548173       -0.3160661764
 H          8.4813037265       -1.9510995107        0.0815371100
 H          7.4964744940       -2.7877134471       -1.1200942451
 C          7.0464943417       -0.7160708203       -0.9310970801
 H          7.7666933491       -0.4665766454       -1.7150538749
 H          6.0728442243       -0.8265208996       -1.4127011599
 C          6.9892954897        0.4627392086        0.0383067964
 H          6.8317934062        1.3683760082       -0.5536557531
 H          7.9469009736        0.5627280121        0.5529506583
 C          5.8708602826        0.3996446613        1.0927072827
 H          6.1665261611       -0.2039322904        1.9475292947
 H          5.6919584670        1.4157387292        1.4563869970
 H          6.7119518472       -2.0070017057        1.7111187802
 H          6.8740509499       -3.6030553995        1.0131786517
 H          4.5582156156       -3.1840910251        1.2323602494
 H          4.9564264102       -3.2194423928       -0.4737484739
 O          3.0896149141       -1.7297212779       -0.3161610958
 C          2.0974846923       -0.8106401027       -0.6161605031
 O          1.0785678300       -1.3146331587       -1.1247977900
 H         -1.1284881218        0.3043497608       -1.0565230094
 C         -1.0271967506        0.6698284851       -0.0467736527
 C          0.1245549640        1.3426858271        0.3288987311
 C          0.2390965994        1.7857515601        1.6439349066
 C         -0.7727253681        1.5567048827        2.5568506933
 C         -1.9158990954        0.8722685504        2.1821886515
 C         -2.0371550834        0.4208176987        0.8750911748
 N         -3.1786954954       -0.3087104385        0.4920516409
 S         -4.6838456271        0.3052636636        0.9467596023
 O         -4.7732562490        1.7083879581        0.6059921960
 O         -4.9131933851       -0.0179884617        2.3327200248
 C         -5.7686429433       -0.6585820949       -0.0864074567
 C         -6.1390362673       -1.9210945047        0.3357791507
 C         -6.9596992839       -2.6851376358       -0.4784547307
 C         -7.3927484788       -2.1774371062       -1.6944104789
 C         -7.0133604992       -0.9080214159       -2.1040427877
 C         -6.1916296141       -0.1390254898       -1.2950469709
 H         -5.8795108136        0.8560480036       -1.5692674119
 H         -7.3540331613       -0.5152289089       -3.0485121183
 H         -8.0325240477       -2.7737823856       -2.3255984466
 H         -7.2586929517       -3.6716491381       -0.1628071570
 H         -5.7848790678       -2.2702346325        1.2915685400
 H         -3.1646497521       -0.5339236255       -0.4935500380
 H         -2.7137483663        0.6861002170        2.8828466320
 H         -0.6722110437        1.9112331190        3.5719059925
 H          1.1380599182        2.3077851685        1.9417371374
 C          1.2745124359        1.5736823624       -0.6202883011
 H          1.7343573483        2.5381793336       -0.3652631946
 C          0.8747482392        1.5956229700       -2.0803229112
 C          0.0968367501        2.7621415925       -2.6098598453
 C          1.5305420290        2.5760827486       -3.0038463315
 H          1.7519477206        2.2633685830       -4.0132806620
 H          2.2677997480        3.2435528300       -2.5824612603
 H         -0.6674531458        2.5809863327       -3.3501254865
 H         -0.1419711218        3.5555690892       -1.9176462160
 H          0.6538742640        0.6132162854       -2.4795910971
 O          3.7913768332        2.1617471863        0.5469463130
