  62
        -98.94208665
 C         -1.4813353409       -1.1111552352        0.6231874107
 C         -2.4452402801       -0.9180131329       -0.3959073584
 C         -2.9894523450        0.4464316423       -0.5017632517
 C         -2.5257597871        1.4303918512        0.2866592768
 C         -2.9544565654        2.8723331359        0.2573814066
 C         -4.2295248054        3.1656983822        1.0599731791
 C         -5.5260807006        2.6520989632        0.4326426682
 H         -6.3509638628        3.1108768091        0.9813684137
 H         -5.5891193915        2.9972801580       -0.5997984363
 C         -5.6903957943        1.1266639962        0.4782171593
 H         -4.9980198760        0.7081309430        1.2121386281
 H         -6.7006847591        0.8789125010        0.8113831463
 C         -5.4707946657        0.4258378029       -0.8624391564
 H         -6.2384554512        0.7425415676       -1.5719671961
 H         -5.5775540641       -0.6509750795       -0.7088772236
 C         -4.0933777784        0.6787745427       -1.4894780613
 H         -3.9547912854       -0.0266771016       -2.3127097729
 H         -4.0389240958        1.6920351017       -1.8878792363
 H         -4.1162772959        2.7428306752        2.0608317962
 H         -4.3059274028        4.2505493635        1.1635060403
 H         -2.1315086438        3.4467562786        0.6887887969
 H         -3.0885535074        3.1907099446       -0.7770772734
 O         -1.5657387057        1.2166450132        1.2239879905
 C         -1.0293318801       -0.0431867308        1.4050036848
 O         -0.1568787709       -0.1014415596        2.2970502006
 H          0.3116554065       -1.0575024475       -1.1671682257
 C          1.0698106828       -1.5179433944       -0.5506971963
 C          0.7045368016       -2.2610340202        0.5620346693
 C          1.7062801921       -2.8272942687        1.3416805694
 C          3.0391949305       -2.6528330762        1.0136960258
 C          3.3991245010       -1.8764678360       -0.0734052866
 C          2.4044093686       -1.2950793682       -0.8496008284
 N          2.7097363371       -0.4271427674       -1.9221496674
 S          2.2977750142        1.1789284543       -1.6481990667
 O          0.8819424307        1.2899684121       -1.4140348258
 O          2.8220540823        1.9039502433       -2.7858210835
 C          3.2285567054        1.6087503570       -0.1877540681
 C          2.7317182040        1.2804712914        1.0577558855
 C          3.5131277724        1.5377085597        2.1744275889
 C          4.7666566179        2.1110747087        2.0293265609
 C          5.2498391062        2.4364940142        0.7704670734
 C          4.4778652375        2.1777254579       -0.3499846248
 H          4.8094231782        2.4151930547       -1.3480786584
 H          6.2236463379        2.8854290004        0.6592487852
 H          5.3685186906        2.3058027006        2.9029309008
 H          3.1277743712        1.2806195922        3.1481026712
 H          1.7518694240        0.8380510960        1.1527476680
 H          3.6779944404       -0.4691272398       -2.2126320915
 H          4.4385086924       -1.7084202540       -0.3122843347
 H          3.8061603020       -3.1018571668        1.6256452945
 H          1.4353694175       -3.3887675576        2.2236290685
 C         -0.7548646907       -2.4196199612        0.9122362142
 H         -0.8079812826       -2.5677456262        2.0049137427
 C         -1.3732893880       -3.6456975591        0.2608949010
 C         -0.8711683341       -4.2119655287       -1.0295216262
 C         -0.6474011580       -4.9583508620        0.2496411485
 H         -1.2180818602       -5.8571060520        0.4276113389
 H          0.3582043847       -4.9864282866        0.6397735262
 H         -0.0240355042       -3.7311910758       -1.4955358233
 H         -1.6019695157       -4.5784667812       -1.7337716355
 H         -2.4450557996       -3.6877906486        0.4154813784
 O         -2.8540470109       -1.8057135931       -1.1877752782
