  62
        -98.93688069
 C         -1.8583540360       -0.8787269479        0.7613636246
 C         -2.2022931098       -0.3851139142       -0.5191512490
 C         -3.6388698426       -0.3783671359       -0.8461500559
 C         -4.5238362715       -0.8493757594        0.0490469512
 C         -6.0206582421       -0.9699402011       -0.0913860233
 C         -6.7709903449        0.2254947277       -0.6968323078
 C         -6.1485496379        1.5995898699       -0.4089397842
 H         -6.9234364687        2.2658566906       -0.0249002154
 H         -5.3839389831        1.5108443761        0.3647637257
 C         -5.5427486406        2.2536142976       -1.6533558800
 H         -5.4615748262        3.3293781073       -1.4796788954
 H         -6.2279081808        2.1093517160       -2.4916591717
 C         -4.1540272105        1.7539877571       -2.0508211886
 H         -3.4121565301        2.1013086297       -1.3263026908
 H         -3.8971592350        2.2061029870       -3.0117986067
 C         -4.0075845449        0.2281792476       -2.1691917996
 H         -4.9049780422       -0.2236159510       -2.5847533387
 H         -3.1687253191        0.0231905331       -2.8395191640
 H         -6.8545860773        0.0947467367       -1.7748708146
 H         -7.7862295643        0.1957901527       -0.2976426026
 H         -6.2367973164       -1.8643838579       -0.6825431694
 H         -6.3863566643       -1.1572849200        0.9209863146
 O         -4.1430781795       -1.3365768980        1.2647589715
 C         -2.8155342612       -1.3510130329        1.6563909019
 O         -2.6207368220       -1.7972789232        2.8059243356
 H          2.0865259968       -0.1322319884        0.3077799618
 C          1.4813083949        0.6976061935        0.6321828359
 C          0.1963307084        0.4823014689        1.1054077283
 C         -0.5469032148        1.5792615642        1.5339515988
 C         -0.0270839316        2.8567018227        1.4651437702
 C          1.2547254329        3.0673380296        0.9880315482
 C          2.0127154141        1.9792904530        0.5755386256
 N          3.3107447520        2.1588639924        0.0771541069
 S          4.5200663149        1.0723138909        0.4662162338
 O          4.3449769374        0.5306133757        1.7935880517
 O          5.7500830724        1.8013999795        0.2380088845
 C          4.3917787522       -0.2226772395       -0.7489711068
 C          4.7054226550       -1.5146114731       -0.3756745892
 C          4.6566810109       -2.5200485614       -1.3288501717
 C          4.2961851861       -2.2170467122       -2.6325959120
 C          3.9857559489       -0.9140908125       -2.9914876827
 C          4.0375309144        0.0965433071       -2.0447826382
 H          3.7982993353        1.1176071471       -2.2906182249
 H          3.7019009821       -0.6826752630       -4.0055499940
 H          4.2551230756       -3.0010883421       -3.3722443678
 H          4.8979039780       -3.5338830869       -1.0506463527
 H          4.9683250250       -1.7080516182        0.6522163690
 H          3.6446380047        3.1114165827        0.0848449793
 H          1.6634548826        4.0650403792        0.9346989325
 H         -0.6215135768        3.6970119397        1.7916835018
 H         -1.5458309144        1.4163238491        1.9163591006
 C         -0.4049066168       -0.8997013547        1.1946809708
 H         -0.4047687685       -1.2006839502        2.2533229252
 C          0.3552584994       -1.9375820560        0.3940067214
 C          1.5185669918       -2.6632290774        0.9980886591
 C          0.2221219346       -3.3804883418        0.7742243931
 H          0.1697177013       -4.1186255383       -0.0116794854
 H         -0.3936958390       -3.6104930018        1.6318159238
 H          1.7954625040       -2.4113536276        2.0110901473
 H          2.3554317762       -2.9092273108        0.3619486500
 H          0.3935656955       -1.6982707606       -0.6626744618
 O         -1.3547119146        0.0262538744       -1.3523360377
