  62
        -98.93209824
 C         -2.0618846021       -1.5807906489        0.4517931072
 C         -2.4531095668       -0.7335301137       -0.6098316669
 C         -3.2518276245        0.4564264954       -0.2490772878
 C         -3.5195754641        0.7039028936        1.0447000923
 C         -4.2874946125        1.8512242079        1.6499776158
 C         -3.9533441881        3.2522636858        1.1140123765
 C         -5.0781509269        3.8660915774        0.2789098204
 H         -6.0322592842        3.6271843640        0.7532019469
 H         -4.9695285871        4.9528104429        0.2926660016
 C         -5.1153509823        3.4243461035       -1.1829375947
 H         -6.0344064659        3.8177326571       -1.6236097759
 H         -4.2780947439        3.8782934616       -1.7178881505
 C         -5.0698442466        1.9122141251       -1.4128769266
 H         -5.6871512934        1.3943271473       -0.6801164783
 H         -5.5044665808        1.7123998523       -2.3946413340
 C         -3.6486001296        1.3301935654       -1.4084606594
 H         -3.5096827048        0.6977069696       -2.2912601271
 H         -2.9125898010        2.1355069575       -1.5022441487
 H         -3.0271844266        3.2182593545        0.5407428131
 H         -3.7750151906        3.9038877715        1.9710333110
 H         -5.3564705948        1.6557566891        1.5364845127
 H         -4.0721391253        1.8018468543        2.7196521314
 O         -3.1100346831       -0.1338396786        2.0397039614
 C         -2.3785246064       -1.2740953660        1.7777744465
 O         -2.0764726619       -1.9338431658        2.7919176840
 H          0.0153914941       -1.0948063188       -1.3777881469
 C          0.6977609134       -1.4981282374       -0.6435631424
 C          0.2358873033       -2.4404201052        0.2664002441
 C          1.1242819259       -2.9435382739        1.2082893504
 C          2.4386136466       -2.5085520904        1.2391685360
 C          2.8889989714       -1.5574141089        0.3405067756
 C          2.0063241926       -1.0487314518       -0.6029438412
 N          2.4457629315       -0.0368859141       -1.4941904394
 S          2.5565651657        1.4736912144       -0.7494447390
 O          1.5634509850        1.6210288893        0.2928609074
 O          2.5095208369        2.4443402435       -1.8213668499
 C          4.1891217610        1.4540706754       -0.0422437674
 C          5.2707990914        1.4581306915       -0.9015444209
 C          6.5489231686        1.4257546467       -0.3673569535
 C          6.7219849198        1.3900878631        1.0085347980
 C          5.6254400685        1.3883719677        1.8572956247
 C          4.3438859504        1.4202099533        1.3294429354
 H          3.4608868494        1.4147787689        1.9485882956
 H          5.7614750659        1.3602531902        2.9264835981
 H          7.7175729658        1.3638391001        1.4225538615
 H          7.4041928556        1.4276273235       -1.0236168686
 H          5.0881828231        1.4922880533       -1.9626101132
 H          1.8294673671        0.0544971269       -2.2918937262
 H          3.9082385161       -1.2074779963        0.3648493804
 H          3.1170789941       -2.9078048139        1.9773416944
 H          0.7715815350       -3.6624815055        1.9332924444
 C         -1.2187581195       -2.8339927238        0.2604372561
 H         -1.4040729742       -3.4427973059        1.1587440809
 C         -1.6327209855       -3.6587053278       -0.9510529851
 C         -0.7183018056       -3.9622591499       -2.0972841387
 C         -1.0797669015       -5.0425072404       -1.1260136790
 H         -1.7449081572       -5.8302481843       -1.4453827513
 H         -0.3185883400       -5.3606286005       -0.4294720499
 H         -1.1499816692       -3.9848166288       -3.0864449610
 H          0.2866559545       -3.5709484719       -2.0708638330
 H         -2.6791573853       -3.5201333658       -1.2002043172
 O         -2.1617874220       -0.9378381477       -1.8191276376
