  62
        -98.95135354
 C         -2.3394590454       -0.0823060830        0.1119263814
 C         -1.6082628783        0.4814515746       -0.9601009567
 C         -1.4458120214        1.9397320242       -0.9275434910
 C         -1.9010936656        2.6358417532        0.1298852019
 C         -1.8159622742        4.1267179719        0.3141799507
 C         -0.4615623994        4.6089334968        0.8511046926
 C          0.6774799472        4.6124060452       -0.1688292387
 H          0.3526813942        5.1283535203       -1.0735451702
 H          1.4924080768        5.1947720595        0.2658975477
 C          1.2111318975        3.2193707968       -0.5305397942
 H          0.9198965375        2.5002492283        0.2390963121
 H          2.3044160263        3.2412217912       -0.5375537935
 C          0.7640393691        2.7018170943       -1.8968812170
 H          1.1650639685        3.3491863031       -2.6806122134
 H          1.1887198952        1.7053839669       -2.0321472538
 C         -0.7556839712        2.6058375497       -2.0814580286
 H         -1.1746657482        3.6005016934       -2.2369585878
 H         -0.9510273213        2.0020490535       -2.9714885765
 H         -0.1806353346        3.9851912394        1.7035862879
 H         -0.5991434624        5.6300921248        1.2150204344
 H         -2.0345055298        4.6282868013       -0.6293524172
 H         -2.5895448080        4.3937001830        1.0375935941
 O         -2.5331857115        2.0464228177        1.1796066207
 C         -2.7717441314        0.6829617167        1.1939696957
 O         -3.3761002590        0.2756731836        2.2090356155
 H         -0.5210010944       -0.9973625604        1.6877983574
 C         -0.3156283650       -1.8578478245        1.0677543547
 C         -1.2911246068       -2.3232521426        0.1954778760
 C         -1.0078359121       -3.4407488803       -0.5796625275
 C          0.2307355051       -4.0543165203       -0.4966760946
 C          1.2165912887       -3.5551400055        0.3353262982
 C          0.9391612756       -2.4417586404        1.1201109993
 N          1.9145541444       -1.8660553828        1.9615126022
 S          2.3588852854       -0.2844189845        1.6215844985
 O          3.4328871941        0.0100070001        2.5457919217
 O          1.2070295635        0.5765911667        1.6883715540
 C          3.0142717225       -0.3658206958       -0.0359445872
 C          2.1522657169       -0.5414854225       -1.1001827950
 C          2.6852536349       -0.6907795938       -2.3721670999
 C          4.0579414046       -0.6592019504       -2.5594104848
 C          4.9099462545       -0.4795060153       -1.4797347080
 C          4.3856683059       -0.3389944629       -0.2053773601
 H          5.0074321439       -0.2012095186        0.6644898211
 H          5.9777073986       -0.4528411519       -1.6261916664
 H          4.4640180347       -0.7745731230       -3.5518833983
 H          2.0118213290       -0.8282011318       -3.2033008938
 H          1.0853660356       -0.5539434000       -0.9409511558
 H          2.7487169624       -2.4288110407        2.0616463954
 H          2.1913553422       -4.0171480624        0.3779495472
 H          0.4375864300       -4.9220312247       -1.1040801944
 H         -1.7546984478       -3.8278467260       -1.2531519469
 C         -2.6032195137       -1.5780363316        0.1521838892
 H         -3.1308786753       -1.7657125360        1.0992531105
 C         -3.4973326090       -1.9903875124       -0.9984109126
 C         -4.4158712966       -3.1657549853       -0.8564516235
 C         -4.9750237837       -1.7757638073       -0.8771444224
 H         -5.5226343641       -1.4501337600       -1.7486884604
 H         -5.3394696251       -1.3545209118        0.0488995483
 H         -4.5849544095       -3.7959163465       -1.7165195042
 H         -4.4108212828       -3.6938476542        0.0851479377
 H         -3.0433366294       -1.8061866434       -1.9650342861
 O         -1.1262652718       -0.1961084339       -1.9059964719
