  62
        -98.94488163
 C         -1.9114635812       -0.1179124498        0.0652613224
 C         -2.9091025764       -0.9834047393        0.5746150234
 C         -4.2323048255       -0.3839635875        0.7773735719
 C         -4.4226614638        0.9197003882        0.5037972764
 C         -5.7076074134        1.6818405513        0.6839767654
 C         -6.6864444680        1.5432609699       -0.4901289161
 C         -7.3792811484        0.1846821658       -0.6034924286
 H         -7.8312006355       -0.0725983317        0.3549718114
 H         -8.1901963291        0.2984045420       -1.3257014379
 C         -6.4630673839       -0.9566724514       -1.0664882772
 H         -5.5600990212       -0.5387653482       -1.5176933285
 H         -6.9681891563       -1.5372190756       -1.8417940319
 C         -6.0578927692       -1.9323697371        0.0383493677
 H         -6.9422786084       -2.4572532256        0.4062685464
 H         -5.3804635826       -2.6743150957       -0.3918907970
 C         -5.3479961728       -1.2769156660        1.2300985665
 H         -6.0632140020       -0.7176799100        1.8327566029
 H         -4.9118186377       -2.0671248656        1.8460688850
 H         -7.4549550451        2.3096188848       -0.3652327301
 H         -6.1512399677        1.7582352859       -1.4179863812
 H         -5.4329276727        2.7344509055        0.7804134495
 H         -6.1961677326        1.3643456314        1.6056413141
 O         -3.4306481653        1.7240874545        0.0364968950
 C         -2.1587850433        1.2262656601       -0.2123817616
 O         -1.3588160814        2.0676483452       -0.6637300092
 O         -2.7004805854       -2.1943181525        0.8538457587
 C         -0.5236746119       -0.6762590171       -0.1946850288
 C          0.5018009742        0.0986041822        0.5938634693
 C          0.3136454731        0.2450354534        1.9669074983
 C          1.2086884248        0.9666251133        2.7307995691
 C          2.3208774652        1.5470890103        2.1453122321
 C          2.5236816550        1.4007533029        0.7793022915
 C          1.6202454453        0.6741253857        0.0132303395
 H          1.7964831940        0.5947906613       -1.0458479364
 N          3.6373334571        1.9897691486        0.1588934685
 S          4.5472968399        1.1240413232       -0.9434595786
 O          5.7872754631        1.8613264656       -1.0459698340
 O          3.8144951495        0.9377404304       -2.1689537948
 C          4.8364283467       -0.4432810181       -0.1434593620
 C          4.0468396754       -1.5299955259       -0.4583860259
 C          4.2430849058       -2.7195704031        0.2255237915
 C          5.2187507656       -2.8010045091        1.2067159065
 C          6.0079984450       -1.7010389260        1.5075656175
 C          5.8139575988       -0.5083001494        0.8306352677
 H          6.4130872770        0.3661444402        1.0265340151
 H          6.7699434777       -1.7697620808        2.2671724843
 H          5.3663855233       -3.7284659094        1.7371921231
 H          3.6321780003       -3.5766440677       -0.0093690330
 H          3.3019202618       -1.4294709982       -1.2300833629
 H          4.2347680389        2.5097330096        0.7848485123
 H          3.0181168834        2.1191898220        2.7383412018
 H          1.0429334692        1.0781493036        3.7917159752
 H         -0.5564679426       -0.2066065947        2.4236837599
 H         -0.5501461236       -1.7059790794        0.1922812954
 C         -0.2472437333       -0.7242098594       -1.6821751292
 C          0.6463192630       -1.7844103992       -2.2501375955
 C         -0.8313621129       -1.8401209572       -2.4937332676
 H         -1.2034034592       -1.6181715157       -3.4827513136
 H         -1.4080236174       -2.5865189119       -1.9670144792
 H          1.2968880424       -1.5240526386       -3.0723019194
 H          1.0638527722       -2.5032584163       -1.5611569023
 H         -0.2265005641        0.2600509973       -2.1376536464
