  62
        -98.94952001
 C          1.5835121554        0.8901895473       -0.7042632731
 C          1.4090111029        1.6786284318        0.4582667555
 C          0.3634196399        2.7098684949        0.3819511835
 C         -0.3753402257        2.8197037144       -0.7365337483
 C         -1.4673729482        3.8277519467       -0.9523663285
 C         -2.8448163352        3.2935180210       -0.5389501484
 C         -2.8799499277        2.6652171524        0.8543741463
 H         -3.9152482047        2.3787122969        1.0563858685
 H         -2.2927500999        1.7438993898        0.8643051147
 C         -2.3740817240        3.5774372150        1.9798845595
 H         -2.3885667255        4.6189939547        1.6549272016
 H         -3.0556750517        3.4911198500        2.8288085603
 C         -0.9775468643        3.2186827008        2.4922935323
 H         -0.9275528382        2.1417084073        2.6764513740
 H         -0.8232826084        3.7255524753        3.4490918916
 C          0.1893667756        3.6063942823        1.5747033018
 H          0.0827046992        4.6485375767        1.2637494920
 H          1.1127440754        3.5129819417        2.1541877820
 H         -3.5574924955        4.1198630480       -0.5808515533
 H         -3.1609667930        2.5392163489       -1.2635689050
 H         -1.2335188154        4.7262565321       -0.3840726157
 H         -1.4915902209        4.0786189529       -2.0146590397
 O         -0.2155058532        2.0060306015       -1.8124588966
 C          0.7591222592        1.0197390723       -1.8205450744
 O          0.7915485383        0.3374586906       -2.8645831725
 O          2.1067813319        1.5481600958        1.4982223310
 C          2.6439109199       -0.1974562397       -0.7352236843
 C          2.3450693076       -1.2097322429        0.3437189634
 C          3.2917112823       -1.7078816230        1.2285755017
 C          2.9190908500       -2.6075006500        2.2131600947
 C          1.6037399696       -3.0127657895        2.3464902463
 C          0.6517523689       -2.5295567266        1.4555242118
 C          1.0355581947       -1.6603361066        0.4493797835
 H          0.2962540968       -1.2912571905       -0.2464616624
 N         -0.6948692583       -2.9138825321        1.5407258707
 S         -1.8824054282       -1.7937608615        1.1647317292
 O         -1.4912187103       -0.4509712211        1.5212743238
 O         -3.0709204801       -2.3011502675        1.8200252236
 C         -2.0933345812       -1.9480481609       -0.5953288276
 C         -2.1687477716       -3.2128568966       -1.1442456910
 C         -2.3483967428       -3.3369702160       -2.5122964800
 C         -2.4511551513       -2.2025055632       -3.3034541311
 C         -2.3816742479       -0.9399368899       -2.7363938910
 C         -2.2033966513       -0.8106848567       -1.3688085077
 H         -2.1261631595        0.1544344179       -0.8928055567
 H         -2.4457157132       -0.0555367376       -3.3499098432
 H         -2.5825291366       -2.2997277847       -4.3695650043
 H         -2.4024841669       -4.3166074083       -2.9593468757
 H         -2.0805036386       -4.0701954814       -0.4980623579
 H         -0.9342019378       -3.4666287702        2.3509848972
 H          1.3115961226       -3.6915326559        3.1332618497
 H          3.6619403506       -2.9841541994        2.8999921142
 H          4.3168023855       -1.3831850105        1.1575194912
 H          2.5383014764       -0.6963781423       -1.7099859257
 C          4.0298611490        0.4040474011       -0.6401026727
 C          5.1993030970       -0.2943628367       -1.2646643521
 C          4.6616636818        0.9622908735       -1.8785891254
 H          5.2427367958        1.8685644180       -1.7973397027
 H          4.1002818396        0.8849890667       -2.7984887905
 H          6.1545632211       -0.2495043694       -0.7637507130
 H          5.0106480351       -1.2267752965       -1.7747503624
 H          4.1871289566        0.9418370639        0.2876490642
