  62
        -98.94491679
 C         -1.9555797013       -0.8534001150        0.0724482537
 C         -2.2614282304        0.1084919637        1.0623884820
 C         -2.3739990373        1.4963254276        0.5978356875
 C         -2.1496557873        1.7743825472       -0.6996179523
 C         -2.2662400253        3.1386291453       -1.3150225181
 C         -3.6833580840        3.3913847915       -1.8489659839
 C         -4.7886188305        3.0583072014       -0.8467981785
 H         -5.7417267644        3.3008971336       -1.3213977075
 H         -4.7857475979        1.9821170650       -0.6598227503
 C         -4.6782685084        3.8041978342        0.4902257500
 H         -4.0209024641        4.6672142449        0.3796783441
 H         -5.6660087809        4.1803562239        0.7643378219
 C         -4.1905014775        2.9440159989        1.6574428173
 H         -4.7882232560        2.0309577870        1.7149382167
 H         -4.3536972994        3.5017719105        2.5833626504
 C         -2.7093252749        2.5458648773        1.6201612686
 H         -2.0895890919        3.4337384644        1.4761419851
 H         -2.4555656835        2.1079029673        2.5902812824
 H         -3.7588803355        4.4398670425       -2.1426396514
 H         -3.8309954318        2.7762017345       -2.7394417708
 H         -2.0059823420        3.8884677742       -0.5701837034
 H         -1.5551351296        3.2005239502       -2.1407400970
 O         -1.8389675078        0.8262355491       -1.6198479092
 C         -1.7226333249       -0.5061948319       -1.2584740166
 O         -1.4287134925       -1.2712238312       -2.1975614974
 H          0.4623270560       -0.9199727195        0.8768598502
 C          0.6707032814       -1.8790116739        0.4235398254
 C         -0.3748226748       -2.7517482558        0.1489124127
 C         -0.0775953136       -3.9847806691       -0.4168057391
 C          1.2303144554       -4.3129331957       -0.7304144774
 C          2.2609798666       -3.4211779086       -0.5001153287
 C          1.9758353907       -2.1925124022        0.0860708176
 N          2.9993159209       -1.2670487013        0.3606381508
 S          2.6377917746        0.3781914276        0.2269804468
 O          2.0166752922        0.8175373693        1.4525725534
 O          1.9110618719        0.6428449701       -0.9945542581
 C          4.2878173938        1.0488639570        0.1263323257
 C          4.8120337817        1.3865164479       -1.1068822429
 C          6.1081917680        1.8737580826       -1.1738144388
 C          6.8548916296        2.0104918116       -0.0133174463
 C          6.3148398896        1.6678644830        1.2176043258
 C          5.0192575680        1.1817215995        1.2917293545
 H          4.5526213996        0.9109852373        2.2244071385
 H          6.8972360932        1.7779671164        2.1180147885
 H          7.8632030122        2.3891821279       -0.0684464149
 H          6.5288309611        2.1438751230       -2.1289720750
 H          4.1903883081        1.2689960407       -1.9802426153
 H          3.8625412329       -1.4907307503       -0.1166848586
 H          3.2763411135       -3.6692312136       -0.7694488125
 H          1.4469699299       -5.2710352959       -1.1780239583
 H         -0.8713158311       -4.6831856597       -0.6257965871
 C         -1.7772458335       -2.3038031384        0.4818745399
 H         -1.8936705843       -2.3165647019        1.5765524818
 C         -2.8532194479       -3.1726528246       -0.1353841897
 C         -3.3340435956       -4.4029421764        0.5729889194
 C         -4.2137655978       -3.1929055909        0.4923204889
 H         -5.0787823187       -3.2225043590       -0.1530151396
 H         -4.3542760107       -2.5996558982        1.3842512431
 H         -2.8847385356       -4.6381896660        1.5259079016
 H         -3.5995354228       -5.2668335639       -0.0174262006
 H         -2.8003668801       -3.1880833315       -1.2183532618
 O         -2.4311658016       -0.1817098318        2.2792388583
