  62
        -98.94729356
 C          2.2859319172        0.7325915633        0.2229941917
 C          1.5986048244        0.0327485268       -0.7982525205
 C          1.8664551736       -1.4094647281       -0.8806988241
 C          2.6435018001       -1.9990382030        0.0448277062
 C          3.0375225084       -3.4506087285        0.0847093000
 C          1.9833767832       -4.3677263054        0.7184146425
 C          0.7626194165       -4.6531710606       -0.1563607369
 H          1.0924601053       -4.9819103310       -1.1428441610
 H          0.2277398138       -5.4861270406        0.3043742969
 C         -0.2057941826       -3.4715532607       -0.3031167711
 H         -1.2329360101       -3.8272171055       -0.1841591829
 H         -0.0366790342       -2.7459242242        0.4964066069
 C         -0.1358709824       -2.7505925050       -1.6483303943
 H         -0.8485958772       -1.9238386267       -1.6174031008
 H         -0.4435627394       -3.4324262636       -2.4450503862
 C          1.2445808238       -2.1844280053       -2.0049247218
 H          1.1215113313       -1.4995397646       -2.8479002840
 H          1.9102717613       -2.9933599981       -2.3080962571
 H          1.6564061247       -3.9258570188        1.6629509803
 H          2.4719468881       -5.3182599362        0.9460402919
 H          3.2635431297       -3.7977814362       -0.9242510766
 H          3.9488514359       -3.5065456202        0.6843373958
 O          3.2011959965       -1.3095630028        1.0759380776
 C          3.0363492906        0.0602710604        1.1899440799
 O          3.6022731998        0.5614397457        2.1839950720
 O          0.8169800042        0.5764059023       -1.6210820764
 C          2.1450416072        2.2359915514        0.4001953986
 C          0.6876522756        2.6196015648        0.3281086379
 C          0.1735792650        3.5968394070       -0.5140664255
 C         -1.1832813745        3.8732803043       -0.5190769195
 C         -2.0554808510        3.1649891110        0.2870568706
 C         -1.5497209430        2.1811536171        1.1293633296
 C         -0.1868742346        1.9419035334        1.1689219705
 H          0.1948002468        1.1781524038        1.8316012502
 N         -2.3945488513        1.3940457730        1.9414601142
 S         -2.4391084380       -0.2475590928        1.5960170514
 O         -3.3898626249       -0.8053346422        2.5345035292
 O         -1.1077544428       -0.7931639857        1.6393378213
 C         -3.1269399936       -0.3311400324       -0.0489123805
 C         -4.4412366021       -0.7343448507       -0.1920559515
 C         -5.0109760425       -0.7399807841       -1.4545081781
 C         -4.2632478040       -0.3319334341       -2.5491830981
 C         -2.9488247836        0.0759641998       -2.3880706778
 C         -2.3682950434        0.0788265383       -1.1276862251
 H         -1.3429177931        0.3869625837       -0.9909658897
 H         -2.3577633689        0.3934838545       -3.2321479033
 H         -4.7060115598       -0.3315981349       -3.5327316133
 H         -6.0332599279       -1.0585882330       -1.5799160533
 H         -4.9826449488       -1.0397153935        0.6888066291
 H         -3.3423750522        1.7422538991        1.9977964467
 H         -3.1168349114        3.3615939976        0.2618343567
 H         -1.5692733236        4.6366506665       -1.1771839601
 H          0.8306724949        4.1291442520       -1.1818192759
 H          2.4865280306        2.4288092557        1.4313168908
 C          3.0387568627        3.0610457603       -0.5141831328
 C          4.3070545435        2.4916831749       -1.0748442299
 C          3.1536146881        2.7887796098       -1.9829027127
 H          3.2372371722        3.6308952099       -2.6542683024
 H          2.5864030838        1.9636134949       -2.3820078550
 H          5.1783318137        3.1279419517       -1.1186686147
 H          4.5323555328        1.4583260115       -0.8524467049
 H          3.0796762181        4.1014410839       -0.2063150348
