  62
        -98.94495317
 C          1.8555522800        0.3923802909        0.0562028394
 C          2.9320730199        0.4961485211        0.9782560895
 C          4.0877922200       -0.3717023288        0.7345081296
 C          4.0706730702       -1.2244407488       -0.3054825804
 C          5.1584234903       -2.1957181787       -0.6754057503
 C          6.2870025003       -1.5802368786       -1.5140892703
 C          7.2258111302       -0.6428249485       -0.7535297202
 H          7.5916882901       -1.1455888284        0.1422871398
 H          8.0873036602       -0.4599767284       -1.3988866901
 C          6.6007072500        0.7060186915       -0.3708912902
 H          5.7000171800        0.8718744614       -0.9663769203
 H          7.2971733899        1.5117899015       -0.6133498302
 C          6.2465659699        0.8436659614        1.1098648197
 H          5.7792497797        1.8199506914        1.2611647797
 H          7.1587759598        0.8106159615        1.7096422398
 C          5.2809506299       -0.2290892387        1.6303712997
 H          5.7973590000       -1.1836572086        1.7301752797
 H          4.9224249698        0.0798956813        2.6152561396
 H          5.8439711803       -1.0465672786       -2.3581245103
 H          6.8796424904       -2.4048460085       -1.9169509602
 H          4.6840781904       -2.9850738288       -1.2626919604
 H          5.5759110303       -2.6395244587        0.2289427797
 O          3.0144637003       -1.3128455189       -1.1534617805
 C          1.8938171102       -0.5059783390       -1.0099275306
 O          1.0323114103       -0.7051195091       -1.8913101407
 O          2.9249923797        1.2846220911        1.9601607295
 C          0.6675334699        1.3087809408        0.2982661093
 C         -0.4748175701        0.5750753607        0.9589618792
 C         -0.8943702502        0.9110884207        2.2405323692
 C         -1.9629725302        0.2562394205        2.8287978991
 C         -2.6348467101       -0.7448476895        2.1509375891
 C         -2.2166080599       -1.0924631495        0.8730116191
 C         -1.1503790899       -0.4312114294        0.2828752192
 H         -0.8269005498       -0.7126661493       -0.7081272808
 N         -2.9056522098       -2.1018031496        0.1665019390
 S         -4.5307392398       -1.7853464097       -0.1038565711
 O         -5.2711474898       -2.0530063398        1.1035501089
 O         -4.8983172196       -2.5706133898       -1.2605520711
 C         -4.5835728999       -0.0418522997       -0.4763785211
 C         -4.1006945799        0.3764020503       -1.7003176211
 C         -4.0641874900        1.7328306203       -1.9781161810
 C         -4.5001061702        2.6434158803       -1.0277930611
 C         -4.9807194902        2.2072440102        0.1968368889
 C         -5.0223233601        0.8514400602        0.4794808889
 H         -5.3896873601        0.4695038502        1.4176347388
 H         -5.3188286004        2.9183215402        0.9330778489
 H         -4.4658126203        3.6996745703       -1.2440403111
 H         -3.6920615000        2.0726243004       -2.9316253010
 H         -3.7719063297       -0.3600304696       -2.4164698510
 H         -2.4533438397       -2.3406369095       -0.7051413209
 H         -3.4747324500       -1.2616494596        2.5866363690
 H         -2.2765528803        0.5284289905        3.8249425091
 H         -0.3690083804        1.6853328607        2.7802366492
 H          1.0327177897        2.0633170509        1.0076220793
 C          0.1855394899        2.0181232408       -0.9531230107
 C         -0.6493011403        3.2536541607       -0.8086361608
 C          0.7595839498        3.3549343508       -1.3095344107
 H          0.9248306598        3.5820814009       -2.3520921207
 H          1.5080564897        3.7699520109       -0.6502532806
 H         -1.4569962202        3.4110178406       -1.5058806308
 H         -0.8576683804        3.6004155707        0.1918346592
 H         -0.0466942400        1.3448567907       -1.7676041507
