  62
        -98.93522752
 C          2.3713981628        1.4075620408       -0.0262481744
 C          3.1138847022        0.7291239783        0.9718848217
 C          3.9946816962       -0.3724613767        0.5396923976
 C          4.0496642058       -0.6754777968       -0.7701601426
 C          4.8391827753       -1.7634378319       -1.4487333711
 C          4.2216651179       -3.1565617999       -1.2506330738
 C          3.7685567542       -3.4607917156        0.1748337711
 H          3.0279535722       -2.7194489837        0.4821425671
 H          3.2637691752       -4.4306174466        0.1621159516
 C          4.8864549278       -3.5281865176        1.2129638779
 H          5.6080741102       -4.2908249815        0.9119481478
 H          4.4334846232       -3.8521912422        2.1534128721
 C          5.6382852376       -2.2210673078        1.4751654919
 H          6.3631913947       -2.0193055751        0.6911743833
 H          6.2088914346       -2.3547910931        2.3986852405
 C          4.7428124442       -1.0048732652        1.6882539564
 H          3.9879904962       -1.2423283164        2.4467191421
 H          5.3446981908       -0.1989694933        2.1250505615
 H          3.3464847291       -3.2353737764       -1.9007965024
 H          4.9485929758       -3.9046547166       -1.5715604544
 H          4.8374554400       -1.5315662278       -2.5161904593
 H          5.8699596915       -1.7458155255       -1.1074515844
 O          3.3121319459       -0.0022367077       -1.6974291834
 C          2.4554806858        1.0347882161       -1.3670285971
 O          1.8537268128        1.5147318732       -2.3474310695
 O          3.0502131766        1.0359544289        2.1930863992
 C          1.4778436460        2.5436064239        0.4422975248
 C          0.0744877276        2.0493213017        0.6830804379
 C         -0.5530726749        2.2321857041        1.9092053986
 C         -1.8310779712        1.7457520543        2.1254194595
 C         -2.5077465680        1.0700964356        1.1257648295
 C         -1.8866811767        0.8770350578       -0.1014532279
 C         -0.6074218261        1.3668275413       -0.3157593203
 H         -0.1275616676        1.2116727434       -1.2715040008
 N         -2.5663775499        0.1863236913       -1.1253432013
 S         -3.0446825558       -1.3867044651       -0.7669586253
 O         -2.1776344179       -1.9880376007        0.2212207542
 O         -3.1344311270       -2.0630466932       -2.0426315259
 C         -4.6837615837       -1.1830160694       -0.1021927342
 C         -4.9784548312       -1.6496472695        1.1637914954
 C         -6.2631488164       -1.4812493468        1.6571183185
 C         -7.2243570028       -0.8535723961        0.8796259030
 C         -6.9125121080       -0.3928516588       -0.3910850961
 C         -5.6307063054       -0.5586878297       -0.8906025048
 H         -5.3466480306       -0.2192260875       -1.8727118125
 H         -7.6627111450        0.0945234823       -0.9926531299
 H         -8.2226783325       -0.7227976719        1.2662761576
 H         -6.5074193986       -1.8391049979        2.6444035833
 H         -4.1961244214       -2.1255529112        1.7333154295
 H         -2.0633497726        0.1974913583       -2.0022811334
 H         -3.5021519318        0.6874280323        1.2882383250
 H         -2.3052546339        1.8931311040        3.0836007321
 H         -0.0245943680        2.7429897296        2.7007137404
 H          1.8951898144        2.8372548070        1.4183814599
 C          1.5406279052        3.7653616694       -0.4645624838
 C          0.3932210342        4.2490571066       -1.2950199832
 C          0.8100609962        5.0181213154       -0.0798045592
 H          1.3058452218        5.9680933597       -0.2087348265
 H          0.1659195119        4.9670060617        0.7850939256
 H          0.6204837521        4.6497576166       -2.2711921626
 H         -0.5350650682        3.7014165798       -1.2577171253
 H          2.5277478945        3.8922439282       -0.8979895915
