  62
        -98.93846693
 C          2.3864173096        1.1362460805       -0.5140119108
 C          3.2337880099        0.5314890708        0.4506419991
 C          3.7251118702       -0.8139950691        0.1424189992
 C          3.3645603300       -1.4011567993       -1.0126469707
 C          3.7839736802       -2.7688721393       -1.4799706906
 C          2.9280885106       -3.9085278494       -0.9104638903
 C          3.1643260310       -4.2221468192        0.5676439997
 H          2.6751387712       -5.1760262593        0.7742183199
 H          4.2320706411       -4.3580760589        0.7426519895
 C          2.6120467410       -3.1655350692        1.5349251997
 H          1.8886323607       -2.5344235394        1.0119435898
 H          2.0730874113       -3.6607627792        2.3458758599
 C          3.6761914909       -2.2749593789        2.1769267193
 H          4.3221463612       -2.8798098987        2.8172677193
 H          3.1704665209       -1.5374255889        2.8053758294
 C          4.5550775905       -1.5167351088        1.1740444191
 H          5.1191083405       -0.7560040586        1.7192181989
 H          5.2570352906       -2.1994128187        0.6957282290
 H          1.8744228605       -3.6642537797       -1.0681455501
 H          3.1524805207       -4.8061281395       -1.4916557002
 H          3.6810803500       -2.7705365295       -2.5672588306
 H          4.8317309403       -2.9367587491       -1.2284651808
 O          2.5698695397       -0.7840899196       -1.9247364706
 C          2.0338562295        0.4820147003       -1.6956145206
 O          1.3093799892        0.8821770700       -2.6249075005
 O          3.5710673000        1.1039327210        1.5222116790
 C          1.8376997694        2.5009691804       -0.1382484208
 C          0.6714476596        2.3503035103        0.8071463894
 C          0.5394598697        3.1804338704        1.9144834694
 C         -0.5447489401        3.0514529203        2.7641105396
 C         -1.5184013900        2.1003513400        2.5209764399
 C         -1.3868432400        1.2529363699        1.4255070700
 C         -0.2943166202        1.3804459200        0.5802816298
 H         -0.2035745503        0.7186909800       -0.2691948302
 N         -2.3374992798        0.2498642697        1.1817645303
 S         -2.6210288601       -0.2313227106       -0.4121567995
 O         -1.6426213699       -1.2266020504       -0.7729783896
 O         -2.7275805905        0.9304879693       -1.2641219797
 C         -4.2211833299       -0.9968186509       -0.2265695591
 C         -5.3559064801       -0.2551387112       -0.4965556889
 C         -6.5991279999       -0.8418794614       -0.3198498386
 C         -6.6864256196       -2.1526861714        0.1244304716
 C         -5.5389119593       -2.8851119311        0.3902751614
 C         -4.2927115795       -2.3045890609        0.2145679211
 H         -3.3736787293       -2.8363810006        0.3986723209
 H         -5.6101195190       -3.9050474411        0.7320168615
 H         -7.6547731694       -2.6073736416        0.2612994818
 H         -7.4923243201       -0.2758232117       -0.5295551485
 H         -5.2375078304        0.7567289788       -0.8494729091
 H         -3.1958758698        0.3802473696        1.6992809205
 H         -2.3680317198        2.0015190999        3.1790859001
 H         -0.6361507801        3.7014695303        3.6208980896
 H          1.3014183096        3.9197066706        2.1128421091
 H          2.6483258194        2.9937994107        0.4244303689
 C          1.5042101689        3.3933705202       -1.3232438009
 C          0.1159464988        3.5715427898       -1.8521613106
 C          0.7842475587        4.6941803501       -1.1199349909
 H          1.1095843384        5.5548218501       -1.6843851510
 H          0.4299552889        4.9214090501       -0.1260800108
 H         -0.0023822415        3.6387735097       -2.9229817706
 H         -0.6897719510        3.0353647997       -1.3730207603
 H          2.2971931088        3.3858663003       -2.0643895410
