  62
        -98.93956377
 C         -1.0123043891       -1.4595111210        0.4982997596
 C         -1.9434336195       -1.1650171711       -0.5231912701
 C         -2.9908974698       -0.1778407917       -0.1966546095
 C         -3.0056345697        0.3833750280        1.0255410907
 C         -3.9349249600        1.4347113174        1.5789066813
 C         -5.4276591900        1.3058447769        1.2416429616
 C         -5.9206784707        2.3558730070        0.2441561621
 H         -6.9947453907        2.4952110965        0.3858129624
 H         -5.4352308410        3.3068181071        0.4739914722
 C         -5.6897136910        2.0164039675       -1.2271676381
 H         -6.3656248107        1.2113207773       -1.5234160681
 H         -5.9553288415        2.8979270576       -1.8153525677
 C         -4.2612814609        1.6016645982       -1.5849697286
 H         -3.5366099510        2.2300231684       -1.0661760186
 H         -4.1193655913        1.7742584386       -2.6541942786
 C         -3.9637692702        0.1206083183       -1.3040504091
 H         -4.8961915699       -0.4191774922       -1.1167732290
 H         -3.5187576703       -0.3389934013       -2.1921535094
 H         -5.6404442897        0.3030735069        0.8753673214
 H         -5.9872950998        1.4372273664        2.1692320718
 H         -3.7955072096        1.3911064972        2.6619065312
 H         -3.5628760104        2.4127044877        1.2601943514
 O         -2.0815450993        0.0718756681        1.9792720103
 C         -1.0551590490       -0.8209385314        1.7353369998
 O         -0.2561788087       -0.9613045814        2.6848925595
 H          0.6544194601        0.1657588199       -0.2692148804
 C          1.2061554401       -0.4784865997       -0.9351936008
 C          1.0382171607       -1.8532161498       -0.8528653011
 C          1.7361143308       -2.6580095192       -1.7454275015
 C          2.5651903003       -2.0892796386       -2.6970738816
 C          2.7315518597       -0.7179264985       -2.7713039713
 C          2.0397612496        0.0953274309       -1.8807929408
 N          2.1621432890        1.4912272510       -1.9239300604
 S          2.0543332491        2.4055737105       -0.5306483601
 O          0.6972734992        2.4376947398       -0.0438672097
 O          2.6173075184        3.6844044109       -0.9094255799
 C          3.1407885497        1.6027216406        0.6342041493
 C          2.6395351203        0.8632489801        1.6851846792
 C          3.5274750108        0.2217524102        2.5355089588
 C          4.8925240707        0.3314443409        2.3248499984
 C          5.3818835001        1.0865072614        1.2690694785
 C          4.5001444796        1.7250538613        0.4137992890
 H          4.8398362691        2.3322868416       -0.4093311009
 H          6.4443449100        1.1766405719        1.1106853583
 H          5.5769679111       -0.1711094391        2.9898550681
 H          3.1341746613       -0.3621016402        3.3526243587
 H          1.5740278304        0.7879047296        1.8376839795
 H          2.8607351587        1.8450686515       -2.5600727005
 H          3.3777600593       -0.2785091380       -3.5153294013
 H          3.0950382004       -2.7249772482       -3.3899825919
 H          1.6241499313       -3.7289856793       -1.7005015218
 C          0.1414858213       -2.4067404305        0.2309292190
 H          0.7282534415       -2.4369463705        1.1620535088
 C         -0.3655203083       -3.8027428606       -0.0695261913
 C          0.4205001024       -5.0046677904        0.3583790981
 C         -0.8529917276       -4.6523700212        1.0645160286
 H         -1.7227597674       -5.2724451615        0.9080781487
 H         -0.7896691375       -4.2335564714        2.0586900587
 H          0.4236543925       -5.8730366502       -0.2831324721
 H          1.3494910324       -4.8366229702        0.8820270679
 H         -0.9136867985       -3.8521438706       -1.0029593212
 O         -1.9004379096       -1.6912430508       -1.6667421402
