  62
        -98.93839173
 C         -1.8798730046       -0.7906034158        0.1223284568
 C         -2.3692137090        0.5355052738        0.1062523033
 C         -3.7922433726        0.7081141845        0.4543313282
 C         -4.5252309271       -0.3733921520        0.7710964336
 C         -5.9924024898       -0.4210508977        1.0971426864
 C         -6.8187632102       -0.7228480569       -0.1645396902
 C         -7.2104471682        0.5041911449       -0.9869082123
 H         -7.6705094686        0.1434893213       -1.9097853416
 H         -7.9683784495        1.0729081102       -0.4440749337
 C         -6.0588556294        1.4462358645       -1.3481096369
 H         -6.3713529888        2.0421961659       -2.2079303258
 H         -5.1892427196        0.8640223663       -1.6585580030
 C         -5.6713975785        2.3935274016       -0.2027732760
 H         -6.4464017982        2.3613561151        0.5629037595
 H         -5.6473816734        3.4197172121       -0.5754788099
 C         -4.3013144067        2.1235578273        0.4378024508
 H         -3.5308817867        2.6866547650       -0.0986478240
 H         -4.3059535692        2.5046907595        1.4645409747
 H         -6.2419502880       -1.4132851548       -0.7852463462
 H         -7.7351510659       -1.2375487896        0.1312070749
 H         -6.1277289906       -1.2410370053        1.8054434129
 H         -6.3134414451        0.5041869223        1.5661468710
 O         -4.0083370471       -1.6331154228        0.7847056108
 C         -2.6868255855       -1.8760470111        0.4610447245
 O         -2.3518212178       -3.0765568137        0.5168398989
 O         -1.6580493657        1.5317853865       -0.1892959865
 C         -0.4325529346       -1.0714321186       -0.2421358767
 C          0.4870789715       -0.2809391209        0.6557960771
 C          0.3017259624       -0.3625682175        2.0343647475
 C          1.0986042550        0.3602248788        2.8992958511
 C          2.1086124910        1.1703510661        2.4096497047
 C          2.3099393878        1.2512144835        1.0378624587
 C          1.5074574334        0.5205446892        0.1699675158
 H          1.6770591455        0.6182071889       -0.8886240839
 N          3.3184559389        2.0764215694        0.5164807391
 S          4.2890206446        1.5448441799       -0.7342855186
 O          5.4379752024        2.4228019494       -0.6957398079
 O          3.5522945283        1.5172057363       -1.9714008050
 C          4.7682353012       -0.1052666655       -0.2572509070
 C          4.1914824438       -1.1955027009       -0.8746658580
 C          4.5398643389       -2.4677443382       -0.4489106224
 C          5.4523106055       -2.6261924452        0.5822774886
 C          6.0271813854       -1.5198002545        1.1896595829
 C          5.6811588440       -0.2460629465        0.7700225137
 H          6.1157488701        0.6376499194        1.2083192167
 H          6.7406052101       -1.6471122349        1.9878546568
 H          5.7190029541       -3.6180689731        0.9117147493
 H          4.0964972647       -3.3291674279       -0.9227278443
 H          3.4888339787       -1.0312809793       -1.6746382416
 H          3.8590591997        2.5676378788        1.2130187212
 H          2.7260803401        1.7451394752        3.0829612501
 H          0.9345863879        0.2934586867        3.9642761001
 H         -0.4901410073       -0.9930938799        2.4160311900
 H         -0.2732361744       -2.1409659270       -0.0409235060
 C         -0.2144087572       -0.8171837507       -1.7188646240
 C          0.7945497338       -1.6183092558       -2.4829364932
 C         -0.6694558247       -1.8490528530       -2.7052603617
 H         -1.1122493194       -1.5168644864       -3.6323148514
 H         -1.1113450217       -2.7517124490       -2.3083273009
 H          1.3616893731       -1.1259354367       -3.2594343005
 H          1.3415589605       -2.3749660174       -1.9409289776
 H         -0.3533599216        0.2233353050       -1.9905590594
