  62
        -98.94520237
 C         -1.7705589657       -1.3254275188       -0.2435343633
 C         -2.8826089128       -0.7022484775        0.3628695226
 C         -3.2791929791        0.6063995781       -0.1834200695
 C         -2.5760442183        1.1268891844       -1.2048095216
 C         -2.7481480960        2.4794833241       -1.8382883216
 C         -1.8172332270        3.5022190455       -1.1624925320
 C         -2.4207645149        4.2145618113        0.0464531294
 H         -1.6296401107        4.8250854106        0.4882597468
 H         -3.2145499147        4.8878495704       -0.2858984270
 C         -2.9784339346        3.2842048990        1.1264576122
 H         -3.0169595190        3.8423295033        2.0644519658
 H         -2.2838510299        2.4542987326        1.2757265188
 C         -4.3840562394        2.7555720244        0.8029943830
 H         -4.7984783680        3.3341719979       -0.0226088160
 H         -5.0386907572        2.9258878845        1.6604034074
 C         -4.4652641235        1.2573292597        0.4750707167
 H         -4.6109433250        0.6914706843        1.4008287916
 H         -5.3500627902        1.0763287693       -0.1447678608
 H         -1.5305147190        4.2590435900       -1.8959816690
 H         -0.9072819075        2.9804012828       -0.8519148662
 H         -3.7848823317        2.8006713173       -1.7954765945
 H         -2.4527528012        2.3756446848       -2.8843880029
 O         -1.5298173801        0.4778994302       -1.7820163412
 C         -1.0801007953       -0.7352571821       -1.3008069454
 O         -0.0823240695       -1.1902463402       -1.8946392288
 O         -3.5081961373       -1.2107021223        1.3350373225
 C         -1.2443983864       -2.6310708984        0.3232286772
 C          0.2005112476       -2.4608910053        0.7259312953
 C          1.1712813551       -3.4349476557        0.5275753933
 C          2.4876634636       -3.1992088984        0.8866150590
 C          2.8694630572       -1.9829051083        1.4227505362
 C          1.9031361315       -1.0071222300        1.6355719757
 C          0.5799966277       -1.2644391619        1.3210012466
 H         -0.1562664786       -0.4942813346        1.4995516929
 N          2.2313710452        0.2702890688        2.1409367123
 S          2.0265906817        1.5449262518        1.0657597822
 O          2.4849090537        2.7182457647        1.7793858914
 O          0.6686638798        1.5774787615        0.5918776679
 C          3.1711550704        1.1710232685       -0.2502967622
 C          2.8126581586        0.2674912785       -1.2302824650
 C          3.7539442419       -0.0801515515       -2.1882749590
 C          5.0244193425        0.4724455140       -2.1495551834
 C          5.3669074922        1.3797615590       -1.1577880794
 C          4.4348734243        1.7285783902       -0.1946507027
 H          4.6529825644        2.4304145554        0.5943086699
 H          6.3544875725        1.8113487536       -1.1304451969
 H          5.7503264051        0.1947122162       -2.8974791312
 H          3.4789691475       -0.7856109679       -2.9559448619
 H          1.8166368483       -0.1483697589       -1.2496069257
 H          3.1628438591        0.3232922492        2.5316858326
 H          3.9015209880       -1.7861791663        1.6715232659
 H          3.2300215541       -3.9656569516        0.7248972810
 H          0.8979438508       -4.3778401886        0.0827076909
 H         -1.8406693410       -2.8229812146        1.2281364164
 C         -1.4630925779       -3.7661699174       -0.6559449869
 C         -1.7102905106       -5.1596154072       -0.1617861106
 C         -2.8299401681       -4.3698027277       -0.7677814958
 H         -3.1919967533       -4.6490619408       -1.7457910889
 H         -3.5964322883       -3.9793290908       -0.1142608855
 H         -1.3060696092       -5.9862779368       -0.7263751233
 H         -1.7242191958       -5.3169918489        0.9061172043
 H         -0.8961584615       -3.6375355038       -1.5712680558
