  62
        -98.93945655
 C         -2.2839071351       -0.8737094566        0.6337053260
 C         -3.4312760568       -0.9153929237       -0.1963972645
 C         -4.4794112537        0.0728782264        0.1037925149
 C         -4.3023390209        0.9472006307        1.1096541460
 C         -5.2629062230        2.0391625619        1.4801293906
 C         -4.9406975162        3.3421410551        0.7352028636
 C         -4.7464018438        3.1619811439       -0.7704331851
 H         -4.5555872320        4.1506867585       -1.1934985893
 H         -3.8505815865        2.5608676672       -0.9440556555
 C         -5.9379860364        2.5175844141       -1.4924869956
 H         -6.8309943920        2.5904941603       -0.8707917609
 H         -6.1346702548        3.0763777943       -2.4098182339
 C         -5.7200546079        1.0586408380       -1.8972612180
 H         -6.5217212977        0.7729097568       -2.5833769711
 H         -4.7758131008        0.9662597487       -2.4396209063
 C         -5.7172156510        0.0420475160       -0.7488310152
 H         -6.6097426756        0.1773087777       -0.1349208976
 H         -5.7511713082       -0.9578441386       -1.1907634875
 H         -5.7492308567        4.0524155695        0.9175328761
 H         -4.0205882701        3.7597112209        1.1509891895
 H         -6.2763707147        1.7172263672        1.2485201002
 H         -5.1834694223        2.2158337403        2.5541172793
 O         -3.1881386252        0.9603256121        1.8861311001
 C         -2.1624268219        0.0573906874        1.6703431383
 O         -1.2079744585        0.1743357779        2.4672619353
 O         -3.5997619207       -1.7271440469       -1.1441943152
 C         -1.1087415658       -1.8271178906        0.4818352598
 C         -0.1764919830       -1.3909704714       -0.6238007877
 C         -0.5899645693       -1.3444034288       -1.9511766247
 C          0.2896058295       -0.9485812910       -2.9418334250
 C          1.5915074890       -0.5973098784       -2.6322626597
 C          2.0176646350       -0.6491115686       -1.3098242279
 C          1.1312728121       -1.0425592383       -0.3169279276
 H          1.4655597122       -1.0585254301        0.7097717170
 N          3.3519851693       -0.3493070338       -0.9836681046
 S          3.7116161084        0.3835109970        0.4929495279
 O          3.6257237823       -0.6060468700        1.5370569120
 O          2.9176524942        1.5803558601        0.6633374692
 C          5.4219283389        0.8047505370        0.2137846151
 C          5.7660287096        2.1043082077       -0.1056050359
 C          7.0979944476        2.4057807411       -0.3442329459
 C          8.0570748125        1.4076043377       -0.2629835460
 C          7.6964250527        0.1074810624        0.0593666235
 C          6.3671569608       -0.2002029259        0.3007383207
 H          6.0406674620       -1.1927213621        0.5637564396
 H          8.4450994657       -0.6654415243        0.1243703176
 H          9.0925878951        1.6448919882       -0.4491263037
 H          7.3815614390        3.4160834635       -0.5915876394
 H          4.9869555279        2.8484099881       -0.1499693481
 H          3.8408792393        0.1094672145       -1.7408733137
 H          2.2756844013       -0.2890898669       -3.4083812299
 H         -0.0435433682       -0.9098728759       -3.9680802407
 H         -1.6077282097       -1.6081235849       -2.1936604352
 H         -0.5506794651       -1.7569742381        1.4261587148
 C         -1.5299779220       -3.2713035197        0.2846022415
 C         -0.5500148371       -4.3570878974        0.6068316782
 C         -1.7459604858       -4.1410284029        1.4841612694
 H         -2.5457397471       -4.8657249127        1.4573949376
 H         -1.5911473895       -3.6968999389        2.4572754850
 H         -0.5260860226       -5.2328999877       -0.0230668752
 H          0.4168152694       -4.0596179156        0.9856993044
 H         -2.1875899968       -3.4169642363       -0.5616778050
