  62
        -98.94435904
 C          1.6098083685        1.3804689472        0.5414032123
 C          1.6085778710        0.0714880843        1.0882688411
 C          2.7431208455       -0.7814964125        0.7202640808
 C          3.7095921612       -0.2960542474       -0.0799776433
 C          4.9498930820       -1.0282108642       -0.5158788268
 C          4.7472597872       -1.9250519252       -1.7447022663
 C          3.9398877907       -3.1985998807       -1.4917338837
 H          4.0557691600       -3.8314609777       -2.3738116042
 H          4.3691749534       -3.7368666616       -0.6461933075
 C          2.4432057720       -2.9594326971       -1.2472876045
 H          1.8603333269       -3.6691841940       -1.8381395419
 H          2.1720177889       -1.9591642443       -1.5935664341
 C          2.0039406472       -3.1155710201        0.2084966015
 H          0.9381522794       -2.8832286006        0.2686614478
 H          2.1448143287       -4.1517535722        0.5227481451
 C          2.7410304827       -2.2023579313        1.1967017594
 H          2.2106887781       -2.2318138623        2.1513155168
 H          3.7609012127       -2.5544789976        1.3499757446
 H          5.7376782589       -2.2123836922       -2.1054564056
 H          4.2655244767       -1.3374930823       -2.5297910783
 H          5.6893372500       -0.2643347023       -0.7659766056
 H          5.3330937590       -1.6247121954        0.3124355379
 O          3.6748025771        0.9649479500       -0.5843597409
 C          2.6109520285        1.8194021527       -0.3251756130
 O          2.6957213986        2.9157745583       -0.9103706788
 H         -1.3527754090        0.4008759019        0.2623225372
 C         -1.3578887059        1.1863852236       -0.4788541892
 C         -0.5003750334        2.2694411497       -0.3269366539
 C         -0.4969638067        3.2627027227       -1.2983467705
 C         -1.3379111178        3.1673833152       -2.3931258274
 C         -2.2076866551        2.1003177337       -2.5286472521
 C         -2.2176166374        1.1006393919       -1.5620312013
 N         -3.0813615607       -0.0004869750       -1.6662251340
 S         -3.8896536364       -0.5377720839       -0.2979960210
 O         -5.0795512290       -1.1812646012       -0.8162875730
 O         -4.1099210110        0.5392748691        0.6387863239
 C         -2.8375638249       -1.7852921212        0.4087968136
 C         -2.4243503561       -1.6746737346        1.7204703993
 C         -1.6431744815       -2.6811616571        2.2649182380
 C         -1.2958984114       -3.7771137930        1.4918190626
 C         -1.7201821221       -3.8745504075        0.1742763671
 C         -2.4989416213       -2.8704284958       -0.3758250249
 H         -2.8530036821       -2.9113198515       -1.3925778292
 H         -1.4419931702       -4.7278286318       -0.4234142209
 H         -0.6864646411       -4.5586416876        1.9177668870
 H         -1.3022137345       -2.5980397215        3.2839511660
 H         -2.7117726702       -0.8035746838        2.2878474033
 H         -3.6942472953        0.0197327774       -2.4686470167
 H         -2.8729148696        2.0371961278       -3.3767664202
 H         -1.3236533980        3.9411084623       -3.1460708442
 H          0.1792798129        4.0965572295       -1.2057261305
 C          0.4252654390        2.2769110634        0.8648990044
 H         -0.0984215185        1.7759047930        1.6910847392
 C          0.8270421192        3.6629884911        1.3192323349
 C         -0.2020006349        4.5371179355        1.9697612966
 C          0.9119939311        3.9558348698        2.7859959660
 H          1.6936218453        4.6140357901        3.1347082811
 H          0.6776829257        3.1548448729        3.4719253520
 H         -0.1882467989        5.5955953899        1.7596054739
 H         -1.1933086692        4.1273891756        2.0965650715
 H          1.5610739132        4.1344814818        0.6784695264
 O          0.7055616458       -0.3595909821        1.8529096783
