  62
        -98.93675531
 C         -1.7669933332       -0.9913387084       -0.1192112802
 C         -3.1361614508       -1.3216724892        0.0234404077
 C         -4.1224618738       -0.2734480056       -0.3042421399
 C         -3.6741966033        0.9348950637       -0.6917655442
 C         -4.4766549814        2.1611831576       -1.0365932556
 C         -5.0363867792        2.8714234750        0.2065644981
 C         -5.6455916506        1.9457405665        1.2563006978
 H         -4.8922888901        1.2249042818        1.5793692136
 H         -5.9045966261        2.5551854808        2.1261650363
 C         -6.9043090124        1.2016307902        0.8168655087
 H         -7.2784086091        0.6554104987        1.6866444455
 H         -7.6676640153        1.9276885617        0.5282581830
 C         -6.7261588799        0.2027783649       -0.3286445216
 H         -6.6667713090        0.7108404821       -1.2875105364
 H         -7.6267256663       -0.4174378202       -0.3624038234
 C         -5.5475630353       -0.7517703752       -0.1645783553
 H         -5.6567492136       -1.5674378210       -0.8900260750
 H         -5.6094658355       -1.2333345232        0.8180889328
 H         -5.7828237901        3.5980931514       -0.1185092088
 H         -4.2172730706        3.4175393135        0.6806792236
 H         -3.7984076975        2.8451502394       -1.5515305514
 H         -5.2737951161        1.9035567376       -1.7276101361
 O         -2.3444774668        1.2202641956       -0.7798989164
 C         -1.3611269209        0.2868068677       -0.5002784930
 O         -0.2019265247        0.7222718543       -0.6238217827
 O         -3.5291462004       -2.4514361397        0.4216715185
 C         -0.7431345182       -2.0627221665        0.2052272092
 C          0.3550698500       -1.5034485250        1.0750713458
 C          0.0136417297       -0.9547804459        2.3095302736
 C          0.9821316887       -0.4363863272        3.1456376819
 C          2.3148403161       -0.4580969493        2.7717585109
 C          2.6688213439       -1.0091489539        1.5467248241
 C          1.6909857098       -1.5302091087        0.7078947708
 H          1.9932546236       -1.9304386373       -0.2447195834
 N          4.0206419856       -1.0895648153        1.1699621453
 S          4.5730721437       -0.5957298905       -0.3286417770
 O          3.8776174198       -1.3030744207       -1.3717471325
 O          6.0045370968       -0.7990600768       -0.2660979843
 C          4.2358221051        1.1544992220       -0.4035841824
 C          5.2875342686        2.0359327114       -0.2379409750
 C          5.0332668952        3.3973007776       -0.2517312285
 C          3.7343740135        3.8535408720       -0.4211381118
 C          2.6909274294        2.9552278897       -0.5795571885
 C          2.9371652981        1.5904969748       -0.5723658392
 H          2.1286150263        0.8870713522       -0.6909834559
 H          1.6750504238        3.2942893070       -0.7068488001
 H          3.5333543749        4.9134079576       -0.4297935231
 H          5.8446494934        4.0966571369       -0.1289380997
 H          6.2802970497        1.6353136416       -0.1106945187
 H          4.6625579855       -0.7727186956        1.8827978710
 H          3.0743126917       -0.0553725838        3.4247448006
 H          0.6998975228       -0.0099271799        4.0964906423
 H         -1.0280696914       -0.9364804195        2.6009455178
 H         -1.3020822090       -2.8021486074        0.8041424367
 C         -0.2166367343       -2.8042942525       -1.0143303142
 C         -1.0355343584       -2.9412517998       -2.2619546139
 C          0.1989017871       -2.0928144409       -2.2655515567
 H          1.0760414006       -2.4452705595       -2.7890346515
 H          0.0863929948       -1.0203113257       -2.2910683122
 H         -1.0160797375       -3.8848693445       -2.7862539480
 H         -1.9950112512       -2.4451609081       -2.2903045643
 H          0.3735381320       -3.6725819692       -0.7356009909
