  62
        -98.93940492
 C         -1.9513346925       -0.3219628271       -0.4858397996
 C         -1.2054424433       -1.2993922776       -1.1876547355
 C         -0.8472128279       -2.5247291218       -0.4520089004
 C         -1.2207799705       -2.6380798758        0.8350783025
 C         -0.9542465331       -3.8070867953        1.7433046887
 C          0.4713653343       -3.7939503019        2.3362614341
 C          1.5360597736       -3.1459826566        1.4505358873
 H          1.1850340540       -2.1544905301        1.1566059189
 H          2.4273713586       -2.9814149511        2.0633636150
 C          1.9592560047       -3.9584069700        0.2248619573
 H          2.5875475338       -4.7866166812        0.5633286316
 H          2.5738979198       -3.3147010665       -0.4096859655
 C          0.8315077714       -4.5574418423       -0.6129481119
 H          0.2768534722       -5.2757678655       -0.0146356622
 H          1.2958436946       -5.1202266719       -1.4283418785
 C         -0.1170561050       -3.5573557240       -1.2733937370
 H          0.4354338786       -2.9835264928       -2.0250318387
 H         -0.8765279340       -4.1227516759       -1.8280050805
 H          0.7652400324       -4.8164246558        2.5787642714
 H          0.4413244126       -3.2207163826        3.2653997666
 H         -1.1479598456       -4.7275311388        1.1971801642
 H         -1.6737354114       -3.7462843770        2.5623176047
 O         -1.8822693673       -1.6504110013        1.4937495568
 C         -2.2307536966       -0.4596695421        0.8753108215
 O         -2.7871642679        0.3561974845        1.6338333139
 O         -0.8437348838       -1.1535760759       -2.3873253589
 C         -2.2843105860        0.9669391327       -1.2213293409
 C         -1.7415877058        2.1205621307       -0.4177062718
 C         -2.5030322250        3.1655369387        0.0847964878
 C         -1.9133686076        4.1304193219        0.8844865604
 C         -0.5739281393        4.0578457284        1.2200936704
 C          0.1977385496        3.0171202467        0.7139303464
 C         -0.3826196894        2.0886289123       -0.1304027922
 H          0.2171079274        1.2850888426       -0.5300521677
 N          1.5579308467        2.8870540460        1.0322346091
 S          2.2223936108        1.3554532914        1.2046697573
 O          1.2497040488        0.3808724154        1.6370310275
 O          3.3570039378        1.5590657515        2.0824475238
 C          2.8330740365        0.9742998320       -0.4240636465
 C          2.3642137576       -0.1303116674       -1.1051728554
 C          2.8577602419       -0.3993650877       -2.3718052388
 C          3.8116656851        0.4358312890       -2.9317009715
 C          4.2792951790        1.5386352542       -2.2322372326
 C          3.7870136505        1.8131724559       -0.9669061116
 H          4.1267919149        2.6555791823       -0.3880316326
 H          5.0224516929        2.1848194574       -2.6708226026
 H          4.1911187946        0.2238734909       -3.9188234053
 H          2.4811152850       -1.2515546320       -2.9150628459
 H          1.6130170666       -0.7547918640       -0.6461590176
 H          1.8917358563        3.5234670527        1.7412129930
 H         -0.1291536618        4.7900518436        1.8769291112
 H         -2.5143686315        4.9369277330        1.2769371565
 H         -3.5600900892        3.2083860944       -0.1205383286
 H         -1.6985180823        0.8994585322       -2.1538803613
 C         -3.7366783119        1.1255786916       -1.6383460869
 C         -4.6019401729       -0.0740121343       -1.8816458580
 C         -4.8869399096        0.8330607350       -0.7241354760
 H         -5.7563309155        1.4722082599       -0.7798034974
 H         -4.6608665012        0.4889430578        0.2722251119
 H         -5.2744297449       -0.0624430844       -2.7262096559
 H         -4.1758383224       -1.0450434932       -1.6731908089
 H         -3.8667841080        1.9563023455       -2.3255877255
