  62
        -98.93321599
 C          1.5091841207        0.7487611106        0.5038354500
 C          2.6469198006        1.0063071703       -0.2995452303
 C          3.6193946706       -0.0960236997       -0.4015938800
 C          3.3655413607       -1.2765507595        0.1882911606
 C          4.2148593607       -2.5184838495        0.1252780710
 C          5.6000137608       -2.4305669792        0.7947791907
 C          6.7403049906       -2.0499752496       -0.1577151797
 H          7.6211344807       -2.6438569095        0.0948530604
 H          6.4567423004       -2.3275291201       -1.1736441195
 C          7.1707654906       -0.5802114896       -0.1309702304
 H          7.7910495508       -0.4060881792        0.7513677894
 H          7.7927133305       -0.3979082300       -1.0100505706
 C          6.0385489806        0.4467668904       -0.1041399007
 H          5.5992234108        0.4819173208        0.8959006494
 H          6.4693296306        1.4335777603       -0.2855683712
 C          4.9080321404        0.1854002799       -1.1183537004
 H          5.1682782203       -0.6384896304       -1.7809621700
 H          4.7391168103        1.0768193897       -1.7257216707
 H          5.5556105110       -1.7364064188        1.6337230604
 H          5.8157104709       -3.4184448290        1.2050648311
 H          4.3370139705       -2.8075902800       -0.9209834389
 H          3.6297571408       -3.2957962893        0.6208862715
 O          2.2311112108       -1.5003304592        0.9081581309
 C          1.2994252109       -0.4962737791        1.1019073706
 O          0.3314945410       -0.8290756788        1.8156361810
 O          2.8578814305        2.0829186500       -0.9124801508
 C          0.4156940008        1.7740593008        0.7573300298
 C         -0.6606840194        1.6405750203       -0.2887852600
 C         -0.3551978197        1.6925144997       -1.6461016800
 C         -1.3525963399        1.5493775292       -2.5922760598
 C         -2.6646551298        1.3325459494       -2.2067865294
 C         -2.9786004995        1.2723989500       -0.8546562794
 C         -1.9776427493        1.4379667004        0.0939905604
 H         -2.2367134091        1.3868453909        1.1406625005
 N         -4.3025191694        1.0604759502       -0.4327779590
 S         -4.6282837392       -0.1065203793        0.7244227216
 O         -6.0647571592       -0.2689208693        0.6727531219
 O         -4.0801578090        0.2936784113        1.9938026313
 C         -3.8359918593       -1.5800814896        0.1073939021
 C         -4.5612431495       -2.3893172400       -0.7472310174
 C         -3.9528590596       -3.5049748502       -1.2970435270
 C         -2.6289171295       -3.7872186001       -0.9937652171
 C         -1.9157718194       -2.9643560397       -0.1368456276
 C         -2.5197542793       -1.8486066294        0.4230696520
 H         -1.9703448291       -1.2077583491        1.0947444116
 H         -0.8855658793       -3.1711405695        0.1088931223
 H         -2.1506789296       -4.6532601302       -1.4237445168
 H         -4.5083970897       -4.1488391905       -1.9597314466
 H         -5.5899048595       -2.1372287100       -0.9488655173
 H         -4.9679332596        0.9918216698       -1.1899638889
 H         -3.4411697799        1.2125593591       -2.9468856692
 H         -1.1056617501        1.5978476088       -3.6420168399
 H          0.6698811003        1.8510636495       -1.9455310503
 H         -0.0316172790        1.4884623412        1.7235680100
 C          0.9399873708        3.1951892708        0.9088994190
 C          0.6314487506        4.3018079804       -0.0498581114
 C         -0.0063280791        4.2902034810        1.3046188687
 H          0.3140339610        5.0130621213        2.0396712883
 H         -1.0554672691        4.0385375810        1.3618279490
 H          1.4133847006        5.0180590403       -0.2507571619
 H          0.0117972804        4.0831943400       -0.9049022712
 H          1.9242457509        3.2184996710        1.3646770788
