  62
        -98.93876854
 C          1.8793675855       -0.4698750853        0.6219163233
 C          2.8840736672       -1.3148009165        0.0979454245
 C          4.2666954807       -0.8125844386        0.1714267255
 C          4.4944802136        0.3885520467        0.7309344776
 C          5.8108124395        1.1061439156        0.8470817896
 C          6.0137353033        2.0607510999       -0.3420526172
 C          6.6580018183        1.4277341864       -1.5749664547
 H          6.6216173833        2.1690172397       -2.3766454866
 H          7.7101752642        1.2242253303       -1.3650512593
 C          5.9998307394        0.1368189800       -2.0690134584
 H          6.2845426755       -0.0051469385       -3.1133877511
 H          4.9139747254        0.2441577869       -2.0418747845
 C          6.4231499403       -1.1023340599       -1.2663037022
 H          6.7552909143       -1.8823701088       -1.9545073706
 H          7.2844076166       -0.8487029303       -0.6484837870
 C          5.3242948564       -1.7231989429       -0.3906262080
 H          4.7685597205       -2.4633413826       -0.9749045524
 H          5.7920729660       -2.2667666790        0.4369465386
 H          5.0379240492        2.4758985144       -0.6075116633
 H          6.6447741729        2.8917995204       -0.0204534563
 H          6.6305207164        0.3985642538        0.9284692558
 H          5.7633434999        1.6977290141        1.7636915659
 O          3.4971238416        1.1653384674        1.2375438606
 C          2.1715900596        0.7673969566        1.1946491991
 O          1.3715302124        1.5844249890        1.6881575049
 O          2.6353678002       -2.4362503214       -0.4221732432
 C          0.4327418638       -0.9264730280        0.5642631084
 C         -0.3976859256        0.0830906306       -0.1879710520
 C          0.0416221705        0.5086620900       -1.4401259637
 C         -0.6665700187        1.4522581466       -2.1565220696
 C         -1.8403986804        1.9815724962       -1.6481021196
 C         -2.2953465405        1.5556802970       -0.4073994682
 C         -1.5786529556        0.6072312979        0.3121700829
 H         -1.9508221594        0.3104812528        1.2779280382
 N         -3.4825519258        2.0763150785        0.1344303585
 S         -4.6121726367        1.0308653102        0.7884387555
 O         -5.8437638670        1.7892523030        0.8033857479
 O         -4.1596509036        0.5296375804        2.0602441971
 C         -4.7187636811       -0.2908175362       -0.4038367518
 C         -5.3865202773       -0.0461756882       -1.5882195412
 C         -5.4160286748       -1.0347658819       -2.5578275476
 C         -4.7730267322       -2.2424309028       -2.3310786011
 C         -4.1098538942       -2.4730848358       -1.1360214134
 C         -4.0793268662       -1.4887003384       -0.1606814033
 H         -3.5763864797       -1.6299504381        0.7815882025
 H         -3.6125697515       -3.4138541413       -0.9607339368
 H         -4.7906318097       -3.0100259901       -3.0886076005
 H         -5.9352340256       -0.8610082259       -3.4865314060
 H         -5.8823912131        0.9016057593       -1.7220517505
 H         -3.9319477698        2.7705140092       -0.4448254916
 H         -2.3923537330        2.7258378672       -2.2017212250
 H         -0.3057191673        1.7784971995       -3.1202579651
 H          0.9587241257        0.0954462806       -1.8374250073
 H          0.4467154224       -1.8626771022       -0.0136162843
 C         -0.0799705514       -1.2236503249        1.9571259648
 C         -1.1146485347       -2.2860117126        2.1711638308
 C          0.2990506787       -2.5174433210        2.6110839339
 H          0.5216531226       -2.5148065170        3.6675773124
 H          0.9066285494       -3.2025485507        2.0379409491
 H         -1.8721144776       -2.1237941797        2.9240561785
 H         -1.4587535057       -2.8259480664        1.3018578255
 H         -0.1140319645       -0.3418710398        2.5879326835
