  62
        -98.93412414
 C         -2.1796152301       -0.9374533293        0.6272203311
 C         -3.2828916802       -0.8299302099       -0.2513056989
 C         -4.2228962200        0.2810815304       -0.0000642198
 C         -3.9820765998        1.1441729113        1.0031572194
 C         -4.7652015096        2.3379205918        1.5099035485
 C         -5.9272979996        2.9107039612        0.7030155681
 C         -5.5210804397        3.5992265201       -0.6000108426
 H         -6.4292316497        3.8592202697       -1.1479725227
 H         -5.0037316595        4.5296058602       -0.3524581634
 C         -4.6019338898        2.7929882992       -1.5142375919
 H         -4.3709845198        3.4117529484       -2.3856928325
 H         -3.6573051398        2.5941569295       -1.0032141819
 C         -5.1790839100        1.4735600988       -2.0218369308
 H         -6.1359668101        1.6563723885       -2.5146593808
 H         -4.4866980902        1.0771698481       -2.7693141305
 C         -5.3789412001        0.3857950897       -0.9538795698
 H         -6.3105293900        0.5298082803       -0.4125079298
 H         -5.4411785602       -0.5793336007       -1.4647082290
 H         -6.4053834895        3.6621483918        1.3372325975
 H         -6.6692785497        2.1403523612        0.5152105588
 H         -5.1390703396        2.0456828027        2.4974648187
 H         -4.0257665495        3.1263816218        1.6841918277
 O         -2.8927190198        1.0090108918        1.8178884294
 C         -1.9833210599       -0.0184832184        1.6604695702
 O         -1.0596982698       -0.0129328078        2.5008164302
 H          1.3970690599       -1.1487397896        0.7704448809
 C          1.1208680498       -1.2714827804       -0.2667397089
 C         -0.1535063203       -1.7144975206       -0.5941428185
 C         -0.4949613504       -1.8417789917       -1.9366888183
 C          0.4226847495       -1.5281185226       -2.9223540787
 C          1.6907889396       -1.0839838525       -2.5930209892
 C          2.0430238997       -0.9550561114       -1.2542473793
 N          3.3409086398       -0.5469946312       -0.8980997598
 S          3.5560149001        0.4053038099        0.4793912594
 O          3.5009324401       -0.4424502391        1.6433024501
 O          2.6526103602        1.5344795700        0.4496175085
 C          5.2358441201        0.9461925295        0.2194534988
 C          5.4781475102        2.2105683990       -0.2826482523
 C          6.7887102802        2.6041968987       -0.5047260428
 C          7.8286394901        1.7303890188       -0.2257476321
 C          7.5699276700        0.4643692393        0.2786849190
 C          6.2623598500        0.0653756396        0.5046565794
 H          6.0126967599       -0.9035247300        0.9043293103
 H          8.3809819900       -0.2113369606        0.4971452095
 H          8.8473058202        2.0391165685       -0.3996290925
 H          6.9926835303        3.5889749283       -0.8931606537
 H          4.6380342203        2.8580107290       -0.4768602928
 H          3.8534483398       -0.1666463220       -1.6828447501
 H          2.4046934996       -0.8392520333       -3.3649795294
 H          0.1450819994       -1.6255547835       -3.9611027386
 H         -1.4916724805       -2.1598399518       -2.1981051580
 C         -1.1307180502       -2.0331879295        0.5127694019
 H         -0.5736600701       -2.0028764488        1.4597117418
 C         -1.7306529404       -3.4167605696        0.3559236432
 C         -0.8866169905       -4.6096107194        0.6848215141
 C         -2.0258425004       -4.2269050185        1.5803168139
 H         -2.9099064205       -4.8465760184        1.5867441845
 H         -1.7954687003       -3.7849056677        2.5393187235
 H         -0.9860333707       -5.4951795399        0.0763999549
 H          0.1177297895       -4.4264041492        1.0372475339
 H         -2.4235393205       -3.4983527002       -0.4703431167
 O         -3.5086684003       -1.6218621907       -1.2032977182
