  62
        -98.94417019
 C         -2.6356247250       -1.0943818418        0.1982089958
 C         -2.7426074245       -0.2933059274       -0.9645503290
 C         -3.5620532660        0.9200676322       -0.8305359326
 C         -4.1514930416        1.1922691729        0.3480178542
 C         -4.9621543572        2.4217651896        0.6376793029
 C         -4.0815987990        3.5471412725        1.1992620635
 C         -2.8133155811        3.8033097047        0.3847954504
 H         -2.2851283458        4.6338789019        0.8583746133
 H         -2.1621632315        2.9284151720        0.4537832366
 C         -3.0636571187        4.1313737272       -1.0938934118
 H         -2.4376288132        4.9809613328       -1.3743070125
 H         -4.1019784029        4.4335572777       -1.2346356213
 C         -2.7315731834        2.9934698360       -2.0611596423
 H         -2.7353807485        3.3987605420       -3.0763281691
 H         -1.7228416880        2.6228976436       -1.8607583010
 C         -3.6947145245        1.7997532387       -2.0417132071
 H         -4.7218583228        2.1528707818       -2.1521644249
 H         -3.4535020857        1.1650667328       -2.8993299984
 H         -3.7867821878        3.2812428026        2.2173055342
 H         -4.6765635399        4.4609352680        1.2463900100
 H         -5.4520358141        2.7510618867       -0.2764597598
 H         -5.7238246057        2.1659802151        1.3761298338
 O         -4.0293284739        0.3946038693        1.4409567587
 C         -3.2593785072       -0.7568990881        1.3980524046
 O         -3.2049942197       -1.3812626006        2.4783204787
 H         -0.3321652510       -0.3357692152        1.0840250860
 C          0.2369789402       -0.9369993302        0.3838398347
 C         -0.3710254647       -2.0365316088       -0.2098634708
 C          0.3778735266       -2.8096437764       -1.0873097852
 C          1.6894151762       -2.4724023607       -1.3748318400
 C          2.2820292916       -1.3646457242       -0.7980011490
 C          1.5475238354       -0.5921248715        0.0923962910
 N          2.1391820205        0.5411767085        0.6801543723
 S          3.6110226697        0.3380367129        1.4664780392
 O          3.7519218868       -1.0038830195        1.9828921305
 O          3.6715542089        1.4100618773        2.4362416417
 C          4.8228982532        0.6352868131        0.1967554748
 C          5.7677544208       -0.3296247398       -0.0927312483
 C          6.7078855535       -0.0718423146       -1.0784491291
 C          6.6871036078        1.1398299399       -1.7520823912
 C          5.7329397922        2.0993859723       -1.4473909534
 C          4.7908070943        1.8484166816       -0.4627279826
 H          4.0356307055        2.5678669893       -0.1931029323
 H          5.7196824475        3.0403668875       -1.9735191814
 H          7.4188900486        1.3380243730       -2.5192323514
 H          7.4506669441       -0.8161244501       -1.3166345210
 H          5.7419120608       -1.2584206805        0.4545392360
 H          1.5055205266        1.0704735896        1.2615871498
 H          3.2999129721       -1.0941775497       -1.0264046925
 H          2.2571451231       -3.0797511771       -2.0630855444
 H         -0.0665955175       -3.6757355694       -1.5493452011
 C         -1.7981536973       -2.3592039096        0.1650782586
 H         -1.7952337713       -2.7502623735        1.1939015754
 C         -2.4436545812       -3.3856194648       -0.7433739129
 C         -2.2921823100       -4.8495263151       -0.4622997317
 C         -3.6081364318       -4.1732527018       -0.2255489137
 H         -4.4277553500       -4.3846662997       -0.8957080583
 H         -3.9151375853       -3.9892286511        0.7941673050
 H         -2.2115226124       -5.5296039735       -1.2968743267
 H         -1.7090488760       -5.1363543714        0.3999270210
 H         -2.4787878269       -3.0606232815       -1.7767400077
 O         -2.1820547869       -0.5729954936       -2.0552061259
