  62
        -98.95112910
 C         -1.9880695923       -0.9222184178        0.1135437027
 C         -1.5183571539       -1.8462114455       -0.8518190469
 C         -0.4694618307       -2.7715530258       -0.4026767203
 C         -0.0524037319       -2.7230530112        0.8754005184
 C          1.0303046356       -3.5809830538        1.4617986202
 C          2.4034051441       -2.9021347162        1.3680419378
 C          2.7412320668       -2.3686769328       -0.0240492658
 H          2.0811601650       -1.5333090551       -0.2687570275
 H          3.7549829746       -1.9629189712        0.0194536535
 C          2.6555810614       -3.4100953071       -1.1482718397
 H          3.5268238093       -3.2940007662       -1.7963202136
 H          2.6909460538       -4.4176029097       -0.7308431573
 C          1.4195594708       -3.2676535285       -2.0393264134
 H          1.5788072562       -3.8630686184       -2.9428801666
 H          1.3176067710       -2.2232045509       -2.3483878520
 C          0.0932457188       -3.7254360185       -1.4171632313
 H         -0.6487271434       -3.7825865456       -2.2192850466
 H          0.2123055583       -4.7231562123       -0.9882534448
 H          2.4275959613       -2.0625969410        2.0664675085
 H          3.1633431172       -3.6235781986        1.6739059882
 H          0.7947849984       -3.7561610962        2.5130129827
 H          1.0495423430       -4.5359629138        0.9402740211
 O         -0.5589501323       -1.8538349736        1.7856672541
 C         -1.5036013139       -0.9026158905        1.4208916472
 O         -1.8209890089       -0.1240395652        2.3394569322
 H         -0.7333128653        0.7925509741       -1.5393939084
 C         -1.0960512841        1.6184284735       -0.9443827533
 C         -2.2912433929        1.4844385841       -0.2465731069
 C         -2.7547110419        2.5654207018        0.4907646575
 C         -2.0191277707        3.7373328412        0.5459469772
 C         -0.8082379978        3.8495338455       -0.1122895502
 C         -0.3405331196        2.7771358225       -0.8650310574
 N          0.8828866937        2.8579922142       -1.5547342403
 S          2.0122597256        1.6288319656       -1.4599819466
 O          3.1732918074        2.1555129446       -2.1429124498
 O          1.4622020882        0.4062842911       -1.9839735405
 C          2.3809767173        1.4481030660        0.2748722444
 C          1.4563083560        0.8266816725        1.0891642322
 C          1.7198788922        0.7116445503        2.4443702372
 C          2.9053187970        1.2128733324        2.9600605038
 C          3.8272996856        1.8322833200        2.1292976321
 C          3.5631358453        1.9578845027        0.7748230992
 H          4.2509612542        2.4296964465        0.0919628291
 H          4.7489258870        2.2186391594        2.5337620511
 H          3.1090759318        1.1178190128        4.0150012525
 H          0.9867419307        0.2347708590        3.0770625887
 H          0.5429261438        0.4407421791        0.6644066966
 H          1.3433639463        3.7535339184       -1.4756117209
 H         -0.2282863079        4.7576652225       -0.0489550852
 H         -2.3872300654        4.5703795957        1.1251667360
 H         -3.6842246603        2.4878947063        1.0298154542
 C         -2.9834077184        0.1439117900       -0.3147327471
 H         -3.2056286389       -0.0729071365       -1.3701053433
 C         -4.2663117370        0.0665070465        0.4824866677
 C         -5.5391567385        0.6051248588       -0.0970092767
 C         -5.3425646812       -0.8744680376        0.0340974920
 H         -5.9066285284       -1.4072486051        0.7847951875
 H         -5.1585541258       -1.4492891640       -0.8620699427
 H         -6.2435100045        1.0878560261        0.5632768778
 H         -5.4944680979        1.0358807357       -1.0859424479
 H         -4.1048929015        0.1664838283        1.5493594492
 O         -1.9595214115       -1.8937211773       -2.0321468048
