  62
        -98.93571915
 C          2.3084646625        0.7095324417        0.8762232699
 C          3.4883121497        1.0118788610        0.1510056853
 C          4.5864620854        0.0389877076        0.2804423549
 C          4.4262342026       -1.0479454203        1.0549980047
 C          5.4379081510       -2.1443255625        1.2191020334
 C          5.2204070153       -3.2595124529        0.1866974815
 C          5.0666407776       -2.7526257801       -1.2473925940
 H          4.9482728286       -3.6278116946       -1.8899947722
 H          4.1436506649       -2.1727336135       -1.3226039732
 C          6.2424720952       -1.9034170377       -1.7502979019
 H          7.1163921956       -2.0712021824       -1.1199066203
 H          6.5029169838       -2.2295793922       -2.7593909651
 C          5.9539473266       -0.4031603537       -1.8275315340
 H          5.0261004197       -0.2369666641       -2.3804440051
 H          6.7613670176        0.0696514928       -2.3928140362
 C          5.8497199300        0.3260660149       -0.4821412247
 H          6.7269671535        0.1016671299        0.1276504463
 H          5.8374076154        1.4004492411       -0.6872429220
 H          6.0636289803       -3.9503852430        0.2423781661
 H          4.3136372229       -3.8068679890        0.4550080169
 H          6.4377033898       -1.7274981229        1.1142910575
 H          5.3310472407       -2.5628928563        2.2212488361
 O          3.2855827599       -1.2970741821        1.7498165492
 C          2.2061157368       -0.4345673411        1.6722415763
 O          1.2249901162       -0.7841229323        2.3615256246
 H         -1.5587731199        0.9779502594        0.9096555207
 C         -1.1596609393        0.9588101393       -0.0933509262
 C          0.1814242166        1.2394130764       -0.3106082402
 C          0.6771265870        1.1852111405       -1.6102038739
 C         -0.1561299803        0.8541834812       -2.6625064335
 C         -1.4915814875        0.5674230645       -2.4410269916
 C         -1.9983648142        0.6230461329       -1.1477147052
 N         -3.3627404965        0.3811094779       -0.9090290098
 S         -3.8236767241       -0.4286228149        0.5000158857
 O         -3.7470312816        0.4885112156        1.6087958108
 O         -3.0863039477       -1.6659902541        0.6263621671
 C         -5.5335017631       -0.7591538626        0.1170908313
 C         -5.9085061467       -2.0188515667       -0.3094316949
 C         -7.2376807541       -2.2504900100       -0.6280085388
 C         -8.1629239009       -1.2234787598       -0.5182396884
 C         -7.7714408686        0.0357560064       -0.0877571619
 C         -6.4448085713        0.2736184398        0.2338870942
 H         -6.0957586911        1.2317280485        0.5817324361
 H         -8.4941087040        0.8309600116       -0.0008319262
 H         -9.1962541305       -1.4063937995       -0.7671813176
 H         -7.5455224650       -3.2291375232       -0.9593543635
 H         -5.1554905605       -2.7881515049       -0.3715531922
 H         -3.8279503419       -0.0163637178       -1.7147133595
 H         -2.1389150810        0.3049159409       -3.2640628737
 H          0.2394924225        0.8140376144       -3.6663137038
 H          1.7183188310        1.4103463734       -1.7834341664
 C          1.0721406460        1.5936586451        0.8529415467
 H          0.5210671102        1.3397265985        1.7733361763
 C          1.3991903688        3.0804219244        0.9205118643
 C          1.1384266550        4.0411962280       -0.1965528058
 C          0.2836583351        4.0776452865        1.0319865527
 H          0.3925139579        4.9021342255        1.7202360406
 H         -0.7248387528        3.6980333004        0.9533457431
 H          0.7045194213        3.6613642145       -1.1076188617
 H          1.8594414613        4.8288258232       -0.3527417851
 H          2.2825694793        3.2715449274        1.5212148641
 O          3.6383891334        2.0295997821       -0.5711919559
