  62
        -98.93879979
 C         -1.8904721719       -0.4664421565       -0.6083783728
 C         -2.9010974705       -1.3144954638       -0.1008231776
 C         -4.2816076909       -0.8070449003       -0.1764279954
 C         -4.5022051461        0.4023421016       -0.7207370855
 C         -5.8178466558        1.1194699116       -0.8472877896
 C         -6.0405662155        2.0619102520        0.3476749785
 C         -6.6975713906        1.4138330487        1.5659175253
 H         -6.6727412363        2.1463799710        2.3759796931
 H         -7.7466274871        1.2098786056        1.3413277061
 C         -6.0416114894        0.1192740540        2.0534313660
 H         -6.3367692461       -0.0340229000        3.0932952292
 H         -4.9558325621        0.2293914462        2.0386629313
 C         -6.4541270705       -1.1125721548        1.2339216190
 H         -6.7917279323       -1.8998913160        1.9110737602
 H         -7.3096754798       -0.8541794221        0.6101605825
 C         -5.3460601880       -1.7234815211        0.3626338878
 H         -4.7973671837       -2.4715192643        0.9434980752
 H         -5.8052094015       -2.2563112050       -0.4766830324
 H         -5.0703032356        2.4792336941        0.6294055063
 H         -6.6716131644        2.8927752580        0.0256002740
 H         -6.6347994173        0.4110690286       -0.9477313962
 H         -5.7582670543        1.7202240802       -1.7572414264
 O         -3.4983472260        1.1865866784       -1.2022477102
 C         -2.1743486748        0.7834055011       -1.1574535208
 O         -1.3682559023        1.6079710517       -1.6280776075
 O         -2.6595100044       -2.4442916014        0.4043520760
 C         -0.4474786635       -0.9361743522       -0.5612944760
 C          0.3889071975        0.0421259647        0.2245660617
 C         -0.0301837120        0.3979926787        1.5051109092
 C          0.6843925883        1.3088846555        2.2566732585
 C          1.8440750615        1.8744345461        1.7546677113
 C          2.2776725126        1.5196300600        0.4841940958
 C          1.5542242850        0.6042687947       -0.2707014116
 H          1.9085589202        0.3633985840       -1.2584291811
 N          3.4487183380        2.0807614898       -0.0522246609
 S          4.5812392880        1.0895776274       -0.7809962478
 O          5.7931961862        1.8785155779       -0.8048866521
 O          4.0993464087        0.6252079073       -2.0559521723
 C          4.7598449830       -0.2726882497        0.3556556986
 C          4.0825140780       -1.4521340107        0.1239676503
 C          4.1708077859       -2.4690160999        1.0617486785
 C          4.9297045879       -2.2896915690        2.2076882413
 C          5.6097814481       -1.1003396013        2.4226786628
 C          5.5216501866       -0.0786148443        1.4916686293
 H          6.0420821577        0.8571283411        1.6165000373
 H          6.2036468379       -0.9665061126        3.3124306767
 H          4.9928095123       -3.0829585714        2.9357689776
 H          3.6442194811       -3.3952749621        0.8951647732
 H          3.5063645920       -1.5552638451       -0.7804639355
 H          3.8994742764        2.7532832034        0.5510374246
 H          2.4014301353        2.5925788568        2.3366802219
 H          0.3400154233        1.5805500791        3.2430969496
 H         -0.9357833401       -0.0445157840        1.8971634474
 H         -0.4712488767       -1.8890926454       -0.0118769281
 C          0.0649357231       -1.1960511144       -1.9616137521
 C          1.0981239345       -2.2536959477       -2.2042834387
 C         -0.3160872364       -2.4713681784       -2.6497692877
 H         -0.5390660142       -2.4403586232       -3.7057255310
 H         -0.9243440568       -3.1708110534       -2.0949270780
 H          1.8553904844       -2.0723908438       -2.9530038006
 H          1.4419443877       -2.8179093287       -1.3503478198
 H          0.0999225796       -0.2982401238       -2.5692561809
