  62
        -98.94831043
 C         -0.7894922402       -1.3261977091        0.0680024089
 C         -1.6392515903       -0.9383604398        1.1296046490
 C         -2.4489113699        0.2643576206        0.8959258598
 C         -2.3196466695        0.9283027716       -0.2676023096
 C         -3.1516898590        2.1087142422       -0.6752633488
 C         -4.4174371390        1.6643201832       -1.4229376494
 C         -5.2059227295        0.5637539728       -0.7137619905
 H         -6.0908137294        0.3553688036       -1.3189867109
 H         -4.6067811997       -0.3494080574       -0.6947321912
 C         -5.6368976397        0.9140784717        0.7171124397
 H         -5.5800697194        1.9925660716        0.8687504806
 H         -6.6805616898        0.6222128419        0.8516771492
 C         -4.8326622201        0.2075570406        1.8097347193
 H         -4.8122556004       -0.8675372493        1.6137330083
 H         -5.3469983503        0.3561313599        2.7630889293
 C         -3.3876695500        0.6905120900        1.9893504600
 H         -3.3733714198        1.7761478699        2.1076819209
 H         -2.9987635804        0.2425095591        2.9089837497
 H         -5.0571523287        2.5371970735       -1.5648424488
 H         -4.1236308189        1.2931519839       -2.4071905497
 H         -3.4206174591        2.6814496315        0.2101461717
 H         -2.5552713287        2.7342839126       -1.3392689481
 O         -1.4493979194        0.5580503222       -1.2404702697
 C         -0.6653755097       -0.5773472382       -1.1022707405
 O          0.0827150004       -0.8076153676       -2.0697553905
 H          1.3767130398       -0.4591445007        1.1291322201
 C          2.0245782298       -1.1144145304        0.5648282097
 C          1.5097387195       -2.2790260098        0.0096936786
 C          2.3685662395       -3.1172325394       -0.6905321319
 C          3.7028667296       -2.7833187997       -0.8438788714
 C          4.2055953898       -1.6096453203       -0.3141185203
 C          3.3552499999       -0.7687934106        0.3968398703
 N          3.8365201101        0.4268488288        0.9488525214
 S          2.8613693404        1.7358527088        1.2508235123
 O          3.7955498107        2.8185985283        1.4844041534
 O          1.9580857601        1.4557356581        2.3409240018
 C          1.9254787309        2.1213187003       -0.2208350776
 C          0.8862078611        3.0152775705       -0.0523816371
 C          0.1776207315        3.4441515916       -1.1613845769
 C          0.5052359516        2.9580093926       -2.4174346672
 C          1.5436927814        2.0550534224       -2.5697974378
 C          2.2726164510        1.6402801913       -1.4658409079
 H          3.0804328508        0.9357585411       -1.5766645884
 H          1.7881903915        1.6632706632       -3.5436010280
 H         -0.0548701081        3.2799946235       -3.2813064371
 H         -0.6239744584        4.1553698617       -1.0394131565
 H          0.6529123710        3.3526430897        0.9454475731
 H          4.7690760303        0.6969957187        0.6746853918
 H          5.2427576199       -1.3418228305       -0.4453488598
 H          4.3586261395       -3.4413201394       -1.3933310018
 H          1.9923826093       -4.0303325889       -1.1213728228
 C          0.0467746894       -2.5831643895        0.2124411680
 H         -0.0937137809       -2.9123101403        1.2535889777
 C         -0.4751355507       -3.6634999586       -0.7141089530
 C         -0.3800901212       -5.1088190989       -0.3285367343
 C         -1.7091600610       -4.4172179485       -0.3213117640
 H         -2.4280240609       -4.6674061777       -1.0871219243
 H         -2.1547879811       -4.1718526792        0.6319011261
 H         -0.1889820112       -5.8380843683       -1.1013762948
 H          0.0716186585       -5.3441396899        0.6233588657
 H         -0.3604744004       -3.4016698277       -1.7602190028
 O         -1.7243987007       -1.5743518407        2.2163047384
