  62
        -98.94436534
 C         -1.9198792304       -1.3606272604        0.0949134399
 C         -2.1850823303       -0.4057503102       -0.9163990000
 C         -3.5542528303        0.1310548199       -0.9538313400
 C         -4.4590150703       -0.2847923202       -0.0501106500
 C         -5.8638113603        0.2300650899        0.0628795800
 C         -5.9429663002        1.4232549198        1.0255873902
 C         -4.8985442501        2.5065598598        0.7557174403
 H         -3.9040927901        2.1032222597        0.9614450203
 H         -5.0717002201        3.3113276597        1.4735469404
 C         -4.9289811001        3.0773675100       -0.6690231096
 H         -4.8532677800        4.1653590199       -0.6120704295
 H         -5.8836866201        2.8438976601       -1.1418243697
 C         -3.7879979101        2.5978980800       -1.5681180297
 H         -2.8331549201        2.7466449599       -1.0569295996
 H         -3.7781768700        3.2215146001       -2.4662145796
 C         -3.8697635002        1.1362350301       -2.0261875298
 H         -3.1167487902        0.9909211301       -2.8062104799
 H         -4.8531473502        0.9414643802       -2.4585773799
 H         -5.7990683202        1.0565890097        2.0445844801
 H         -6.9430785002        1.8552082199        0.9582459402
 H         -6.4949301903       -0.5745645901        0.4439558599
 H         -6.2198562402        0.5214909001       -0.9233611000
 O         -4.1721820504       -1.2021640303        0.9069135198
 C         -2.9091513804       -1.7571786304        1.0027361398
 O         -2.7885728905       -2.5899419205        1.9230765697
 O         -1.3394971503        0.0012209298       -1.7593750600
 C         -0.5704993904       -2.0382514605        0.2813958298
 C          0.4121428396       -1.1516273707        1.0080022099
 C          1.0020756096       -1.5600235008        2.1980242399
 C          1.9351227796       -0.7595885310        2.8348346300
 C          2.2981887197        0.4627231190        2.2984632501
 C          1.7073555298        0.8815998292        1.1136718102
 C          0.7787970997        0.0752923894        0.4736413001
 H          0.3286098597        0.4045688895       -0.4511009599
 N          2.0867109399        2.1176780193        0.5459772904
 S          3.7123258699        2.2263243392        0.1451639504
 O          4.4766277799        2.4915897690        1.3381579704
 O          3.7960451000        3.2252277794       -0.8965264295
 C          4.1134724998        0.6081692193       -0.4891230998
 C          3.5936527497        0.2440927195       -1.7153227199
 C          3.8265784397       -1.0366363305       -2.1882054500
 C          4.5653969196       -1.9289555706       -1.4265672801
 C          5.0794812696       -1.5483171208       -0.1970567701
 C          4.8502460697       -0.2681921909        0.2809313501
 H          5.2298681297        0.0687590190        1.2314300701
 H          5.6525786395       -2.2455907910        0.3922927198
 H          4.7424392595       -2.9274102406       -1.7945983803
 H          3.4254469697       -1.3338727703       -3.1441113301
 H          3.0250531698        0.9639925196       -2.2825349698
 H          1.5217170299        2.3633440394       -0.2553417796
 H          3.0299063898        1.0965331289        2.7730953802
 H          2.3850213596       -1.0910347912        3.7581360099
 H          0.7179473395       -2.5091106609        2.6285025797
 H         -0.7668191605       -2.9114111106        0.9173683297
 C          0.0388417595       -2.5216143504       -1.0221377203
 C          1.0690597995       -3.6077518804       -0.9821456004
 C         -0.2978794106       -3.8901641903       -1.5283042605
 H         -0.4132037506       -4.0313299901       -2.5924644605
 H         -0.9720920106       -4.4906514903       -0.9346189905
 H          1.8975573395       -3.5537204404       -1.6706027104
 H          1.3240073994       -4.0198843706       -0.0178325805
 H          0.1618969196       -1.7356836503       -1.7550482702
