  62
        -98.93947168
 C         -0.7619891817       -1.6303692183       -0.5849890071
 C         -1.9554234233       -1.8531075629        0.1504003148
 C         -3.0627083323       -0.9117070682       -0.0723405424
 C         -2.9025200234        0.0909081722       -0.9523776783
 C         -3.9077457784        1.1327687357       -1.3734590968
 C         -4.7344131847        1.8038810575       -0.2661608541
 C         -4.0278793954        1.9284653027        1.0915948748
 H         -2.9668341071        1.7006807379        0.9823281543
 H         -4.1114754318        2.9592559170        1.4404578108
 C         -4.6322587453        1.0206747885        2.1658385497
 H         -4.3677975167        1.4148778888        3.1499381880
 H         -5.7209520796        1.0533799459        2.0838227015
 C         -4.1716307041       -0.4359170346        2.1243648861
 H         -4.7596533437       -0.9968527486        2.8549072001
 H         -3.1255263880       -0.5042611311        2.4351885203
 C         -4.2955420628       -1.1279810985        0.7573052224
 H         -4.3590737157       -2.2057106292        0.9304834552
 H         -5.1929512506       -0.8070856484        0.2335186155
 H         -5.6675780136        1.2587792041       -0.1298472853
 H         -5.0042523153        2.7968297687       -0.6295306814
 H         -4.5872471628        0.6737631911       -2.0974271342
 H         -3.3269957188        1.8852950404       -1.9105627774
 O         -1.7447229000        0.2664859323       -1.6447473356
 C         -0.6501319883       -0.5698937351       -1.4834479999
 O          0.3210716321       -0.2489328842       -2.1966468065
 O         -2.0952789658       -2.8164713562        0.9509258602
 C          0.3736912656       -2.6067739287       -0.3366263454
 C          1.3462589798       -2.0825207299        0.6936326491
 C          1.6943832534       -2.8524377984        1.7971541269
 C          2.6005839002       -2.3761332790        2.7278209080
 C          3.1696316099       -1.1251396883        2.5778910533
 C          2.8199730542       -0.3417482967        1.4818423123
 C          1.9165872484       -0.8256966018        0.5466184664
 H          1.6682856542       -0.2244417060       -0.3129434597
 N          3.3372959824        0.9480911837        1.3455906319
 S          3.2978140201        1.8260369779       -0.0680656881
 O          3.7321274019        1.0467306585       -1.2030073156
 O          4.1135816053        2.9864200198        0.2328971832
 C          1.6094903025        2.3602387088       -0.2381333253
 C          0.8760403936        2.6308044104        0.9000800302
 C         -0.4114715582        3.1227346430        0.7648493015
 C         -0.9392712794        3.3412692623       -0.4985462354
 C         -0.1903426130        3.0636640287       -1.6302280641
 C          1.0980494971        2.5690902550       -1.5021062989
 H          1.7039910494        2.3220089775       -2.3589318153
 H         -0.6036492433        3.2191851519       -2.6140404729
 H         -1.9420188124        3.7261453709       -0.5991856408
 H         -0.9991721087        3.3351301212        1.6439848760
 H          1.3139445654        2.4493034424        1.8678531874
 H          4.0764778588        1.2151796880        1.9763295249
 H          3.8751025844       -0.7504645946        3.3034002608
 H          2.8663400720       -2.9840530721        3.5791935780
 H          1.2426725183       -3.8246008593        1.9273463007
 H         -0.1044225425       -3.5033074489        0.0823597707
 C          1.1258548800       -3.0089906477       -1.5904257981
 C          1.8046084575       -4.3437732499       -1.6368924500
 C          0.5761733863       -4.0978054622       -2.4597616858
 H          0.6776083559       -4.0015523325       -3.5302490398
 H         -0.3471027522       -4.5652081114       -2.1491323278
 H          2.7558360579       -4.4182002374       -2.1412901480
 H          1.7138329075       -4.9843553247       -0.7727899263
 H          1.6163444772       -2.1778283481       -2.0813960367
