  62
        -98.93276850
 C         -1.8187783817       -0.7234861736        0.7975419490
 C         -2.2076652584        0.6305353951        0.6495306633
 C         -3.6434208034        0.9131411822        0.4614008983
 C         -4.5053327496       -0.1201924113        0.4494560612
 C         -5.9974360171       -0.0943557206        0.2466993702
 C         -6.3941986428        0.1321283308       -1.2203662222
 C         -5.6152172998        1.2349694739       -1.9318159913
 H         -4.5503802179        0.9971551719       -1.9026680644
 H         -5.9194611307        1.2313250688       -2.9818858015
 C         -5.8366894389        2.6436591208       -1.3859429613
 H         -5.3102068317        3.3338759805       -2.0500545651
 H         -6.9011370864        2.8837612986       -1.4347645332
 C         -5.3448734365        2.8939783989        0.0417404057
 H         -5.3257632357        3.9771505668        0.1934294985
 H         -6.0401633031        2.4929985656        0.7744332652
 C         -3.9340299703        2.3884392291        0.3257656148
 H         -3.5812024987        2.8427118760        1.2593733614
 H         -3.2546026101        2.7620512255       -0.4487493952
 H         -6.2242742548       -0.8002531334       -1.7644648754
 H         -7.4621030658        0.3543134119       -1.2579640671
 H         -6.4494003217        0.6554864133        0.8891903159
 H         -6.3719897957       -1.0711254729        0.5610874177
 O         -4.0887104108       -1.4090652995        0.5957746663
 C         -2.7565661047       -1.7559279866        0.7635587280
 O         -2.5700835751       -2.9815753499        0.8669488048
 O         -1.3810647324        1.5828110573        0.6775585232
 C         -0.3381112014       -0.9836819683        0.9991800691
 C          0.3781113832       -1.2477671816       -0.3001987892
 C         -0.1487534585       -2.0913050101       -1.2723719072
 C          0.5517023032       -2.3345553748       -2.4400949094
 C          1.7962973130       -1.7664237679       -2.6485896486
 C          2.3323370966       -0.9232818651       -1.6827783693
 C          1.6105895046       -0.6538117006       -0.5285440788
 H          2.0196990896        0.0230016315        0.2052481634
 N          3.5905954478       -0.3307551485       -1.8541622233
 S          4.6266690125       -0.2133450738       -0.5411841014
 O          5.9478275156       -0.1382284410       -1.1262403350
 O          4.4042409193       -1.2839746188        0.4011719520
 C          4.2299538447        1.3575270011        0.1943948905
 C          3.9025207890        1.4261971166        1.5338650490
 C          3.6077285484        2.6613333093        2.0892591861
 C          3.6474765956        3.7998494708        1.2995285680
 C          3.9823957413        3.7143603176       -0.0435468957
 C          4.2781221509        2.4827345801       -0.6045300365
 H          4.5460469405        2.3762329020       -1.6424244020
 H          4.0113499658        4.6029117651       -0.6534460286
 H          3.4145164747        4.7590808939        1.7342305811
 H          3.3449733545        2.7288911458        3.1328669902
 H          3.8774519065        0.5156133365        2.1123124597
 H          4.0774281090       -0.6012171994       -2.6962341330
 H          2.3489177205       -1.9735578331       -3.5524992375
 H          0.1311833240       -2.9886452351       -3.1892617195
 H         -1.1045083822       -2.5627406104       -1.0992045173
 H          0.0586818557       -0.0365443824        1.3993760904
 C         -0.0509883130       -2.0619649856        2.0353106406
 C          0.4066147254       -3.4430814398        1.6883167430
 C          1.3586056518       -2.4828760323        2.3327784941
 H          1.6374575594       -2.6483146267        3.3628833413
 H          2.1550572662       -2.0818989210        1.7218056604
 H          0.0119513359       -4.2627952459        2.2689250446
 H          0.5527089858       -3.6839667821        0.6471228363
 H         -0.7202092688       -1.9836897688        2.8869513274
