  62
        -98.94517098
 C         -1.7378691582       -1.3612122419       -0.2366233308
 C         -2.8755685489       -0.7823635333        0.3662195192
 C         -3.3216310602        0.5094480764       -0.1817551105
 C         -2.6378149707        1.0556725174       -1.2028706503
 C         -2.8617117821        2.4005196473       -1.8364863399
 C         -1.9695056333        3.4576885181       -1.1614738895
 C         -2.5975942741        4.1452468371        0.0494358006
 H         -1.8290230849        4.7839642378        0.4911955108
 H         -3.4158605248        4.7894607663       -0.2811802493
 C         -3.1200783432        3.1940616262        1.1289551303
 H         -2.3960295524        2.3895526069        1.2771938601
 H         -3.1782622439        3.7496645159        2.0674012404
 C         -4.5058334526        2.6149820948        0.8062543600
 H         -4.9424775331        3.1802208646       -0.0171373199
 H         -5.1647193228        2.7589293639        1.6651916499
 C         -4.5326420510        1.1155171149        0.4741649195
 H         -4.6610494504        0.5423090245        1.3979280194
 H         -5.4082741307        0.9050282441       -0.1492782606
 H         -1.7141295640        4.2258715085       -1.8947381393
 H         -1.0389380928        2.9712564690       -0.8542670596
 H         -3.9098583024        2.6821452662       -1.7924631000
 H         -2.5636284019        2.3080030479       -2.8828674399
 O         -1.5669044200        0.4470484487       -1.7786744103
 C         -1.0701674388       -0.7466114509       -1.2947381206
 O         -0.0556366383       -1.1641305297       -1.8875439906
 O         -3.4837332084       -1.3149861542        1.3365016890
 C         -1.1642127169       -2.6455958515        0.3318423189
 C          0.2706902928       -2.4245035201        0.7458746191
 C          1.2687373138       -3.3767417489        0.5778093089
 C          2.5737086935       -3.1018248377        0.9499917691
 C          2.9173333721       -1.8669307774        1.4691956495
 C          1.9240890411       -0.9121826385        1.6503855497
 C          0.6121227214       -1.2078481799        1.3225993695
 H         -0.1448543494       -0.4526904907        1.4771623996
 N          2.2142942797        0.3829302416        2.1343539301
 S          2.0054086584        1.6241831117        1.0210585004
 O          2.4408745071        2.8231289420        1.7060634708
 O          0.6520757385        1.6261261104        0.5329896102
 C          3.1704838990        1.2250467833       -0.2694113996
 C          4.4338234584        1.7822198347       -0.2014795793
 C          5.3836195089        1.4117850759       -1.1388133093
 C          5.0588300800        0.4837073559       -2.1172594696
 C          3.7883632406       -0.0677804855       -2.1687031599
 C          2.8293788301        0.3012075332       -1.2365137999
 H          1.8333388106       -0.1141172778       -1.2653677501
 H          3.5273727915       -0.7895434156       -2.9260240701
 H          5.7987573204        0.1886706768       -2.8445424596
 H          6.3712569384        1.8425025670       -1.1016097591
 H          4.6380003476        2.5007846647        0.5760879209
 H          3.1379559895        0.4644939325        2.5386153002
 H          3.9404293419       -1.6397196864        1.7288481697
 H          3.3370950943       -3.8521208468        0.8124704190
 H          1.0250677449       -4.3342058891        0.1470295486
 H         -1.7590417368       -2.8625054024        1.2321270387
 C         -1.3315955156       -3.7865345214       -0.6510204815
 C         -1.5376931441       -5.1884596517       -0.1620919119
 C         -2.6754975349       -4.4361294228       -0.7818255118
 H         -3.0149423645       -4.7255678929       -1.7650041119
 H         -3.4633306853       -4.0733661338       -0.1377976218
 H         -1.0978676432       -5.9997501711       -0.7223415021
 H         -1.5608901841       -5.3481932321        0.9053173481
 H         -0.7574160656       -3.6372271405       -1.5586459814
