  62
        -98.93933041
 C         -1.8088965296       -0.5488291546       -0.6276946397
 C         -2.5441563395       -1.0189765679        0.4870698135
 C         -3.9936655510       -0.8016437488        0.4381809177
 C         -4.5424968860       -0.2077831026       -0.6372556429
 C         -6.0072850933        0.0682775517       -0.8428351263
 C         -6.4954597403        1.3647919695       -0.1819305083
 C         -6.6031908650        1.3182014769        1.3429383233
 H         -7.1585513430        2.2061019158        1.6518202315
 H         -7.1906509049        0.4482910776        1.6382753285
 C         -5.2533940378        1.3024275226        2.0739661465
 H         -4.4656777690        1.6292281637        1.3909138774
 H         -5.2770999532        2.0184638702        2.8986841234
 C         -4.8665733781       -0.0543934237        2.6627059809
 H         -3.8789371219        0.0406605601        3.1213415138
 H         -5.5762201915       -0.3293522050        3.4461507337
 C         -4.8048497488       -1.1930837267        1.6362458203
 H         -5.8111187004       -1.4857485573        1.3375549142
 H         -4.3143279495       -2.0500033312        2.1043409902
 H         -5.8285992750        2.1789923184       -0.4755418583
 H         -7.4857035135        1.5847250104       -0.5875375898
 H         -6.1593263137        0.1534099445       -1.9209736738
 H         -6.5948233676       -0.7730900444       -0.4744127848
 O         -3.8051151139        0.2076520836       -1.7012844848
 C         -2.4230685452        0.0681215358       -1.7188609612
 O         -1.8770930192        0.5257037185       -2.7399765083
 O         -2.0119488639       -1.5941496635        1.4745646024
 C         -0.3076582813       -0.7402753686       -0.6288058073
 C          0.4606083725        0.5600542534       -0.5949344395
 C         -0.1437524085        1.7658960749       -0.2604872011
 C          0.5824996367        2.9430761823       -0.2357929577
 C          1.9397849583        2.9368304677       -0.5006530593
 C          2.5636869765        1.7330102933       -0.7953392590
 C          1.8253842766        0.5612005847       -0.8585772094
 H          2.3242863837       -0.3562652772       -1.1231911812
 N          3.9684461006        1.6463108130       -0.9863448005
 S          4.7731413188        1.2299089918        0.4380695070
 O          4.3164224555        2.0533666434        1.5379072654
 O          6.1829494415        1.3210889611        0.1325333660
 C          4.3093097174       -0.4615291457        0.7227124633
 C          4.9808006281       -1.4619188753        0.0483219360
 C          4.6123027177       -2.7793144642        0.2693587449
 C          3.5809971723       -3.0701419478        1.1503556044
 C          2.9148541109       -2.0527789899        1.8181347339
 C          3.2822733909       -0.7339618798        1.6050896032
 H          2.7914633605        0.0846841998        2.1064867364
 H          2.1056666818       -2.2796628383        2.4946746468
 H          3.2914556737       -4.0959611806        1.3180503824
 H          5.1250425917       -3.5752059083       -0.2461208766
 H          5.7783302106       -1.1908394355       -0.6234526102
 H          4.3727841608        2.5061352410       -1.3351132255
 H          2.5141083174        3.8505454269       -0.4638326743
 H          0.0870646834        3.8719642295        0.0046573448
 H         -1.1995837409        1.7818830538       -0.0294992470
 H         -0.0838455052       -1.2805915167        0.3041713386
 C          0.1126307819       -1.6076634422       -1.8025382064
 C          1.1768693746       -2.6516199301       -1.6519617740
 C         -0.2571328712       -3.0602894828       -1.7958001621
 H         -0.5818102243       -3.5143040822       -2.7198346815
 H         -0.7714006355       -3.4337177186       -0.9221545511
 H          1.8445482941       -2.8254329373       -2.4822151171
 H          1.6359944641       -2.7675172477       -0.6818725981
 H          0.0428413498       -1.0822961068       -2.7479918104
