  62
        -98.93512062
 C         -1.6578262495       -0.2901518894        0.2953456806
 C         -2.7871289098       -1.0777682592       -0.0282232991
 C         -3.9468616098       -0.3601189189       -0.5942534188
 C         -3.8656932695        0.9639581211       -0.8058397489
 C         -4.9370393195        1.8779447713       -1.3327259386
 C         -5.7233677390        2.5180350315       -0.1762065484
 C         -6.9057984591        1.6938319917        0.3315157519
 H         -7.2887696487        2.1909368618        1.2257860720
 H         -7.7010288393        1.7087095319       -0.4168185979
 C         -6.5875872893        0.2367368617        0.6770212018
 H         -5.6412001292        0.1847386015        1.2183179716
 H         -7.3658966392       -0.1246755082        1.3520514320
 C         -6.5361836898       -0.6782511283       -0.5555659382
 H         -6.9604985899       -0.1495915983       -1.4090088681
 H         -7.1721697000       -1.5494394982       -0.3848079880
 C         -5.1430740700       -1.2130917786       -0.9195835285
 H         -4.9652208601       -2.1533266387       -0.3883744186
 H         -5.1203907504       -1.4515350387       -1.9882603485
 H         -5.0235059888        2.7018783913        0.6429670314
 H         -6.1034978489        3.4874988716       -0.5046958583
 H         -4.4259504994        2.6690119912       -1.8853105487
 H         -5.5977814598        1.3470908815       -2.0115408284
 O         -2.7504022593        1.6832746708       -0.5030080191
 C         -1.6370467793        1.0876314906        0.0535884306
 O         -0.7001089691        1.8760344504        0.2905749703
 H          2.1086275705       -0.0854770302        0.2467037396
 C          1.7893584302       -0.9362001702       -0.3356869603
 C          0.5174829701       -1.4565697599       -0.1475967900
 C          0.1137424197       -2.5393434698       -0.9214116799
 C          0.9712896093       -3.0833596400       -1.8595808901
 C          2.2485388094       -2.5775331102       -2.0274272605
 C          2.6617685698       -1.4966667403       -1.2579494006
 N          3.9441102999       -0.9527747806       -1.4108304909
 S          4.7805967404       -0.3705428508       -0.0844013611
 O          6.1685328003       -0.4016299511       -0.4938399615
 O          4.4563658905       -1.1052296507        1.1157671990
 C          4.2611059008        1.3247923493        0.0625672790
 C          4.3267878407        2.1292770093       -1.0574576210
 C          3.9447142110        3.4564453194       -0.9505780709
 C          3.5084392514        3.9547054395        0.2676879192
 C          3.4524235815        3.1352808195        1.3839552092
 C          3.8326491312        1.8066509694        1.2830044491
 H          3.7976117913        1.1332895794        2.1254075692
 H          3.1092558718        3.5234908996        2.3295418193
 H          3.2074726316        4.9872434495        0.3485822993
 H          3.9847968609        4.0980041394       -1.8161679509
 H          4.6732249403        1.7071947492       -1.9860615911
 H          4.5459293496       -1.4468872507       -2.0531950310
 H          2.9213199691       -3.0138268704       -2.7502350806
 H          0.6467336990       -3.9206577899       -2.4588989000
 H         -0.8770612204       -2.9435556596       -0.7833805396
 C         -0.3832862895       -0.8525258497        0.9032729002
 H          0.1455604608        0.0118259902        1.3278630201
 C         -0.6250992594       -1.8536891996        2.0175747903
 C          0.5120371507       -2.1922041299        2.9325914500
 C         -0.6428377989       -1.3817963996        3.4385663503
 H         -1.3345746289       -1.8443521595        4.1266260505
 H         -0.4869079387       -0.3278675797        3.6185227803
 H          0.6119771006       -3.2117019599        3.2726995000
 H          1.4571404008       -1.6960121601        2.7644308298
 H         -1.3063355197       -2.6481054195        1.7439079805
 O         -2.8561349600       -2.3249980691        0.1399100709
