  62
        -98.93337462
 C         -2.5946177520       -1.2922905745       -0.0692168038
 C         -2.6694223772       -0.1056716453       -0.8325393867
 C         -3.9881970617        0.5568029089       -0.9027313040
 C         -5.0288322109        0.0012891332       -0.2545525078
 C         -6.4403054856        0.5141854333       -0.1489697729
 C         -6.5714034661        1.6833023775        0.8411841944
 C         -5.4702912208        2.7362910204        0.7437042654
 H         -5.6107093385        3.4406949357        1.5679781385
 H         -4.5003543619        2.2571697688        0.8912270985
 C         -5.4486982481        3.5375530712       -0.5558155621
 H         -4.6696211937        4.2975542430       -0.4547163921
 H         -6.4037190538        4.0547054737       -0.6731108984
 C         -5.1700688697        2.7382813963       -1.8301686743
 H         -4.9532558760        3.4586865100       -2.6243972409
 H         -6.0512377135        2.1866886369       -2.1464926990
 C         -3.9643968051        1.8070912792       -1.7486468683
 H         -3.7145996848        1.4719127550       -2.7626660776
 H         -3.0916918542        2.3785610710       -1.4121112216
 H         -7.5439543300        2.1552173901        0.6917662494
 H         -6.5478266867        1.2718938021        1.8533092868
 H         -6.8100291163        0.7933959542       -1.1310226131
 H         -7.0499851982       -0.3168529010        0.2124017303
 O         -4.9074907137       -1.1489118639        0.4695269854
 C         -3.7054631120       -1.8162466253        0.5896458062
 O         -3.7499930490       -2.8445789013        1.2960289250
 O         -1.6817771515        0.3924320828       -1.4341107697
 C         -1.2724195199       -2.0253866724        0.0739013868
 C         -0.2639092624       -1.1072397146        0.7216067826
 C         -0.5706274361       -0.5626704618        1.9664066046
 C          0.3084654963        0.2940166933        2.5993210657
 C          1.5112342083        0.6328691576        2.0036869689
 C          1.8299538493        0.0918118594        0.7664183758
 C          0.9500899025       -0.7842436715        0.1391076075
 H          1.2119544688       -1.1965784218       -0.8226674317
 N          3.0350898830        0.4493697852        0.1368762032
 S          4.4301724316        0.5590354313        1.0794628410
 O          4.5716143122       -0.6238402806        1.8997303078
 O          4.4120838359        1.8149958627        1.7866137543
 C          5.6837355459        0.5971182489       -0.1859735026
 C          5.9264675055        1.7907623655       -0.8390078518
 C          6.8816475596        1.8224095876       -1.8423191461
 C          7.5737556202        0.6669886758       -2.1742101767
 C          7.3197549897       -0.5230773442       -1.5091427667
 C          6.3644523790       -0.5622194697       -0.5055044645
 H          6.1398300316       -1.4626891295        0.0434317476
 H          7.8613123090       -1.4187190151       -1.7678859986
 H          8.3177085176        0.6950583758       -2.9546583213
 H          7.0834472921        2.7458909734       -2.3607092646
 H          5.3705063760        2.6645519589       -0.5418039372
 H          3.2017353377       -0.0885859368       -0.7024870662
 H          2.2043889853        1.3038648679        2.4846819010
 H          0.0562733141        0.7072679730        3.5648099788
 H         -1.5138693546       -0.8213407754        2.4296007505
 H         -1.4627893373       -2.8596818436        0.7644744636
 C         -0.8326483720       -2.5882501393       -1.2607506029
 C          0.0875502382       -3.7699849101       -1.3100321568
 C         -1.3543261086       -3.9259498853       -1.6875700723
 H         -1.6031493792       -4.0743913315       -2.7276131679
 H         -2.0121962175       -4.4428355367       -1.0039778995
 H          0.8279675891       -3.8169127442       -2.0943569622
 H          0.4135717349       -4.1881864317       -0.3695754701
 H         -0.7326984433       -1.8252205991       -2.0238945676
