  62
        -98.94466703
 C         -2.6017733748       -0.9174903489        0.2433497432
 C         -2.5034685654       -0.0363337237       -0.8611014645
 C         -2.8844064960        1.3608665874       -0.6067468645
 C         -3.3377953021        1.7181515697        0.6073348030
 C         -3.7115629238        3.1134167896        1.0128953686
 C         -2.5189734743        3.8520620944        1.6355531724
 C         -1.2327370796        3.7678636624        0.8125208511
 H         -0.4784974417        4.3678403567        1.3268993037
 H         -0.8646044223        2.7385125767        0.8061761789
 C         -1.3681068939        4.2574518738       -0.6357961159
 H         -0.5018094003        4.8777760119       -0.8752766477
 H         -2.2565031003        4.8827170630       -0.7374329145
 C         -1.4096711541        3.1380734875       -1.6781669634
 H         -0.5792056534        2.4480181102       -1.4983046258
 H         -1.2535110847        3.5846969426       -2.6644650131
 C         -2.7162328298        2.3348089931       -1.7382634037
 H         -3.5660528939        3.0184513654       -1.7929598458
 H         -2.6979276558        1.7353191637       -2.6531742664
 H         -2.7958860079        4.8994818878        1.7696013785
 H         -2.3213984074        3.4229098395        2.6204054407
 H         -4.0727837473        3.6548793130        0.1408841934
 H         -4.5135956953        3.0524539592        1.7505875251
 O         -3.4724199889        0.8355555362        1.6289923643
 C         -3.0746482887       -0.4809578170        1.4857766505
 O         -3.2038615346       -1.1666963586        2.5195034043
 H         -0.2993521886       -1.4676163580       -1.5653327956
 C          0.1624003257       -1.8343110314       -0.6607894921
 C         -0.6309846800       -2.3692800867        0.3442451754
 C         -0.0144399929       -2.8074745532        1.5105812047
 C          1.3566618068       -2.6991623575        1.6680854418
 C          2.1373286088       -2.1271675555        0.6782591192
 C          1.5275727827       -1.6859647418       -0.4875998600
 N          2.3026030610       -1.0112119977       -1.4670951543
 S          2.5863655838        0.5925855909       -1.0150915148
 O          1.5014221732        1.1184131193       -0.2169956538
 O          2.8899646562        1.3030871210       -2.2384276712
 C          4.0620632404        0.4553991464       -0.0300826084
 C          4.0160007565        0.7216239101        1.3236879442
 C          5.1745844291        0.5829358892        2.0725808987
 C          6.3504735543        0.1815059352        1.4572821475
 C          6.3798679140       -0.0814049462        0.0954927754
 C          5.2255795185        0.0557295573       -0.6584998393
 H          5.2014462451       -0.1336105534       -1.7186604142
 H          7.2963016214       -0.3933633806       -0.3788852151
 H          7.2494931787        0.0728988258        2.0431752595
 H          5.1532361144        0.7859123305        3.1312921788
 H          3.0767312392        1.0243930101        1.7586986149
 H          1.8416301717       -1.0007506891       -2.3682316646
 H          3.2020082495       -2.0133920455        0.8036860027
 H          1.8197059652       -3.0456589368        2.5793506340
 H         -0.6239848756       -3.2091011480        2.3072720556
 C         -2.1343143382       -2.3676387546        0.2039016935
 H         -2.5596253712       -2.8440016147        1.0970004994
 C         -2.6024926076       -3.1312697807       -1.0175848151
 C         -2.5953762211       -4.6290519182       -0.9787748030
 C         -3.8957524942       -3.8845400559       -0.9574734726
 H         -4.5196187425       -3.9052058758       -1.8383376477
 H         -4.4504026918       -3.8514507457       -0.0309280068
 H         -2.2690324975       -5.1032536677       -0.0655745461
 H         -2.3244902095       -5.1655441685       -1.8750463534
 H         -2.3553177396       -2.6489304093       -1.9536413553
 O         -2.1222304606       -0.3722760457       -2.0160830204
