  62
        -98.94521103
 C         -2.0810059639       -1.4574423208       -0.0049336933
 C         -1.8984898077       -0.4711820121       -1.0043931181
 C         -2.7880466378        0.6975584289       -0.9221876342
 C         -3.6900730390        0.7784471245        0.0721061007
 C         -4.6086229309        1.9413545125        0.3074581131
 C         -3.9684899288        2.9754059613        1.2444310069
 C         -2.5463895494        3.3747060306        0.8494631909
 H         -2.2171684086        4.1337015588        1.5622221327
 H         -1.8863572245        2.5121757294        0.9670986761
 C         -2.4148065787        3.9202303284       -0.5792383262
 H         -3.3940728022        4.2234656319       -0.9514524149
 H         -1.7874553621        4.8135226886       -0.5592668133
 C         -1.7747273095        2.9472431319       -1.5708941347
 H         -0.8394655607        2.5629883580       -1.1567878215
 H         -1.5306104772        3.5009842627       -2.4812806155
 C         -2.6411500632        1.7514381113       -1.9837662774
 H         -3.6209362372        2.1005234512       -2.3162354329
 H         -2.1477726395        1.2601803710       -2.8274862016
 H         -4.6055048943        3.8616523254        1.2640268189
 H         -3.9390772911        2.5563249210        2.2528632692
 H         -4.8544866790        2.4029602313       -0.6469519098
 H         -5.5257128616        1.5674695682        0.7659089992
 O         -3.8343278844       -0.1854231105        1.0165378205
 C         -3.0395934351       -1.3169360194        1.0039536012
 O         -3.2797897733       -2.1197937433        1.9276879647
 H          0.8850997498       -1.7516413775       -1.3533356850
 C          1.1189730099       -1.9025166248       -0.3112104768
 C          0.1437140637       -2.3953054544        0.5432530519
 C          0.4515254888       -2.5396615050        1.8922259053
 C          1.7098492769       -2.2158400542        2.3667201839
 C          2.6842561015       -1.7350821614        1.5096174710
 C          2.3789692969       -1.5636562459        0.1652768260
 N          3.3515294245       -1.0741713589       -0.7248810315
 S          4.2520955999        0.2808784737       -0.3465151285
 O          4.9394564529        0.6262406642       -1.5692217204
 O          5.0853972562       -0.0059824457        0.7943543079
 C          3.0800951068        1.5592470943        0.0682956204
 C          2.6035575164        1.6537573529        1.3605850114
 C          1.6740262982        2.6371549198        1.6601837221
 C          1.2460785877        3.5091896870        0.6715996858
 C          1.7366313501        3.4030780078       -0.6210556502
 C          2.6563048220        2.4143359287       -0.9296133496
 H          3.0656703110        2.3002758935       -1.9204536524
 H          1.4037673368        4.0845618040       -1.3874211629
 H          0.5255315948        4.2754610228        0.9093946732
 H          1.2887321662        2.7203897230        2.6638919164
 H          2.9699431295        0.9704439312        2.1085422114
 H          3.0223219881       -1.0142333715       -1.6777479239
 H          3.6722737717       -1.4874216696        1.8627138846
 H          1.9377190742       -2.3435577355        3.4142971124
 H         -0.3108276929       -2.9023072608        2.5672840047
 C         -1.2440167878       -2.7273522644        0.0493036540
 H         -1.7229344085       -3.3634985362        0.8052050693
 C         -1.2375239869       -3.4744115011       -1.2692972356
 C         -0.7930062852       -4.9048512009       -1.2904188869
 C         -2.2382733549       -4.5655511925       -1.4955775013
 H         -2.6612815920       -4.6799273298       -2.4824547040
 H         -2.9324491719       -4.7822371560       -0.6965058824
 H         -0.2211524293       -5.2556971680       -2.1358008927
 H         -0.5061116848       -5.3513754049       -0.3502214995
 H         -0.9864893169       -2.8553620318       -2.1203315826
 O         -1.0482591127       -0.5448616467       -1.9311320162
