  62
        -98.94785592
 C          0.7606705802        1.2439108728        0.5881596254
 C          1.1684999104        0.6921277899       -0.6502424801
 C          2.1177604949       -0.4243814971       -0.5637314032
 C          2.4829733813       -0.8999531952        0.6400904673
 C          3.4712663195       -2.0058421519        0.8938397019
 C          4.9337545590       -1.5377177925        0.8880107547
 C          5.5040450767       -1.1980662763       -0.4898381833
 H          6.5857796057       -1.1057407366       -0.3735487715
 H          5.3201707967       -2.0276539905       -1.1729206624
 C          4.9621070775        0.1027376102       -1.0989378702
 H          5.7913372229        0.6880834970       -1.5028437317
 H          4.4974084174        0.7064980204       -0.3158124724
 C          3.9547734071       -0.0982812230       -2.2313780451
 H          4.4468335435       -0.5832346419       -3.0772562157
 H          3.6100178024        0.8850874186       -2.5605642110
 C          2.7237486918       -0.9263460364       -1.8389684880
 H          1.9729299152       -0.8211542217       -2.6251819291
 H          2.9937353961       -1.9768257847       -1.7459648624
 H          5.0262677858       -0.6696611347        1.5449893265
 H          5.5348815197       -2.3429334514        1.3167909358
 H          3.2454657872       -2.4061500944        1.8842537932
 H          3.3413612688       -2.7967074695        0.1562297698
 O          1.9760769048       -0.4131262025        1.8055294760
 C          1.1378877802        0.6899625687        1.8100369903
 O          0.7978836213        1.0735721793        2.9494573456
 H         -1.6249952243        0.2999379054        0.5913086933
 C         -2.0416924979        1.0628656618       -0.0507538493
 C         -1.3801949237        2.2775947159       -0.1760219034
 C         -1.9374761800        3.2584673186       -0.9868246934
 C         -3.1230297643        3.0188199523       -1.6592945492
 C         -3.7765172336        1.8072923140       -1.5357093875
 C         -3.2274946797        0.8194381886       -0.7242280491
 N         -3.8467628411       -0.4276169877       -0.6100480602
 S         -3.4598615211       -1.5519215583        0.5444165048
 O         -4.4723503005       -2.5754202067        0.3865596388
 O         -3.3635289964       -0.9712695249        1.8638453445
 C         -1.8926934417       -2.2262433054        0.0375593400
 C         -1.6363352197       -2.4034558689       -1.3069952444
 C         -0.4558913371       -3.0205254088       -1.6871041347
 C          0.4360866572       -3.4599274255       -0.7221879683
 C          0.1694989957       -3.2666886239        0.6237831861
 C         -1.0046718529       -2.6410963852        1.0093450684
 H         -1.2452850415       -2.4613115887        2.0460072073
 H          0.8657715786       -3.6019629502        1.3754909120
 H          1.3427253107       -3.9611619046       -1.0211457264
 H         -0.2381951924       -3.1616607061       -2.7334035127
 H         -2.3537512484       -2.0582310704       -2.0326897391
 H         -4.7594538751       -0.5342688494       -1.0225384603
 H         -4.7000105773        1.6209372902       -2.0615928814
 H         -3.5453697346        3.7881669290       -2.2877335262
 H         -1.4437680756        4.2103001675       -1.0936607752
 C         -0.1090249311        2.4860777544        0.6093489880
 H         -0.3873631582        2.6467681456        1.6622579427
 C          0.7008779183        3.6759198856        0.1313700467
 C          0.4497084857        5.0435239211        0.6893932844
 C          1.6921309954        4.2962302581        1.0679208964
 H          2.6392078596        4.6309571295        0.6718761255
 H          1.7579100570        3.8799559011        2.0631500176
 H         -0.3245924663        5.1455984718        1.4348852328
 H          0.5474127741        5.8954430096        0.0333293695
 H          0.9842564543        3.5909745804       -0.9117016543
 O          0.7781181177        1.1197782255       -1.7666949363
