  62
        -98.94124274
 C         -1.7837182872       -0.0563243761        0.3894779485
 C         -2.9308226827       -0.4242194388        1.1417925745
 C         -4.1910227646        0.2358629442        0.7785425634
 C         -4.1844838172        1.1762252289       -0.1830152539
 C         -5.4006657023        1.8950222056       -0.6889007302
 C         -6.0263101567        1.1556290984       -1.8799727646
 C         -6.2344777963       -0.3396261207       -1.6388739345
 H         -6.7093394359       -0.7499653801       -2.5327247846
 H         -5.2601246457       -0.8240996352       -1.5423203074
 C         -7.0892285533       -0.6714919402       -0.4076614263
 H         -7.6577213221        0.2081311001       -0.1034854759
 H         -7.8104987654       -1.4447222908       -0.6805237271
 C         -6.2984498889       -1.2024679851        0.7895559086
 H         -5.6578168119       -2.0276199218        0.4680061751
 H         -7.0101416693       -1.6054963948        1.5149384546
 C         -5.4295021402       -0.1740127625        1.5244914728
 H         -6.0317876320        0.6999648757        1.7808795460
 H         -5.0811288691       -0.6355758418        2.4531166068
 H         -6.9835962619        1.6252051017       -2.1134568133
 H         -5.3697095925        1.2749938755       -2.7450720810
 H         -6.1254474859        1.9847235953        0.1180131070
 H         -5.1013907669        2.8945516979       -1.0089969587
 O         -3.0590394888        1.5478610859       -0.8405034557
 C         -1.8332225322        0.9401181475       -0.5874191862
 O         -0.9075909507        1.3819940908       -1.2921866995
 O         -2.9001425417       -1.2679936278        2.0763557687
 C         -0.4787156540       -0.7485229329        0.7444921788
 C          0.6168856948        0.2601456368        0.9651619319
 C          0.7165643104        0.9191285365        2.1862934954
 C          1.7192674981        1.8443501895        2.4142995475
 C          2.6416119733        2.1367645761        1.4242795992
 C          2.5374882218        1.4972168265        0.1980623522
 C          1.5417332399        0.5571735374       -0.0236553500
 H          1.4689825634        0.0728149880       -0.9850918349
 N          3.4976781347        1.7750078479       -0.8074573771
 S          4.9657104641        1.0124599207       -0.5402812542
 O          5.5706323138        1.5780269252        0.6381948621
 O          5.7161806228        1.1322923370       -1.7696706827
 C          4.5231286670       -0.6906198297       -0.2447134195
 C          4.1950261517       -1.0832710431        1.0375686357
 C          3.7418398207       -2.3759361868        1.2460262853
 C          3.6214808066       -3.2472634630        0.1740966712
 C          3.9581068910       -2.8384933695       -1.1075036427
 C          4.4065108165       -1.5452821379       -1.3226338196
 H          4.6776736675       -1.1867383126       -2.3029105413
 H          3.8651282990       -3.5199673569       -1.9379868958
 H          3.2622199318       -4.2511528116        0.3390123131
 H          3.4753348128       -2.6953588856        2.2407433169
 H          4.3015005339       -0.3762260379        1.8439538365
 H          3.1644820043        1.5393604240       -1.7323680144
 H          3.4420516541        2.8407314683        1.5847625556
 H          1.7848858464        2.3417410893        3.3701267641
 H         -0.0053731786        0.6970125588        2.9600137425
 H         -0.6898878288       -1.2373894872        1.7090081987
 C         -0.0576978469       -1.8516291337       -0.2164335557
 C         -1.0766088615       -2.7821354997       -0.8004033117
 C         -0.3477585646       -1.8182308312       -1.6857286500
 H          0.4010093719       -2.2088368739       -2.3595960592
 H         -0.8857666705       -0.9699463337       -2.0791880616
 H         -0.8383917954       -3.8323002701       -0.8720946642
 H         -2.1146058692       -2.5827841855       -0.5765817584
 H          0.8908630958       -2.2920933929        0.0766851070
