  62
        -98.94118067
 C         -2.1309390492       -0.7728669850       -0.3727476403
 C         -3.1410437880       -0.6760633957        0.6210920825
 C         -3.7171049985        0.6550005765        0.8446094640
 C         -3.2441087501        1.6989914711        0.1404481610
 C         -3.7622531229        3.1042411595        0.2331818569
 C         -4.8799237013        3.3539422623       -0.7891476168
 C         -5.9690946718        2.2813295238       -0.7865491732
 H         -6.7189074820        2.5777451098       -1.5231031788
 H         -5.5391937273        1.3366572658       -1.1271716678
 C         -6.6457654180        2.0673934849        0.5745923485
 H         -6.4566987683        2.9248118009        1.2214364455
 H         -7.7255193711        2.0072241646        0.4232039676
 C         -6.2258287138        0.7859861701        1.2971917729
 H         -6.9152821481        0.6237018131        2.1298760974
 H         -6.3246939146       -0.0658280652        0.6197393080
 C         -4.8045502130        0.7794177256        1.8745355846
 H         -4.6518467287        1.6694191464        2.4886946129
 H         -4.7098682600       -0.1007828789        2.5171568889
 H         -4.4350519259        3.3882833145       -1.7862669184
 H         -5.3251722794        4.3285998821       -0.5816026880
 H         -4.1303010605        3.2827446299        1.2417367873
 H         -2.9359807951        3.7884003819        0.0322511633
 O         -2.2585069636        1.5767950525       -0.7819310358
 C         -1.6795786750        0.3489931757       -1.0680705307
 O         -0.8000518023        0.4151996951       -1.9510259219
 H          0.8119891270       -0.9307817827       -1.1992339539
 C          0.8968763122       -1.5557619338       -0.3226600953
 C         -0.2128209444       -2.2631975367        0.1176914928
 C         -0.0940450648       -3.0322603329        1.2695233806
 C          1.1041515928       -3.0879658220        1.9602511136
 C          2.2061576419       -2.3756077908        1.5215471567
 C          2.0932881200       -1.5977153595        0.3769634073
 N          3.2059298438       -0.8451180309       -0.0748255076
 S          3.6748459864        0.3971714724        0.9749265056
 O          4.1606442470       -0.1967408556        2.1943420012
 O          2.6050795315        1.3626927894        1.1227335852
 C          5.0302556805        1.1092570268        0.0639677996
 C          6.2971408255        0.5841578010        0.2307570065
 C          7.3442171211        1.1159948565       -0.5048371544
 C          7.1077246693        2.1561682790       -1.3911404492
 C          5.8302662315        2.6726994011       -1.5477049935
 C          4.7784854376        2.1446428204       -0.8155455533
 H          3.7710567187        2.5215855017       -0.8994653965
 H          5.6484975844        3.4823844482       -2.2361108358
 H          7.9236570058        2.5694387824       -1.9627278008
 H          8.3391559955        0.7187817901       -0.3848960411
 H          6.4331384645       -0.2183598934        0.9363922333
 H          2.9947024773       -0.4185312133       -0.9696903900
 H          3.1370734089       -2.3900709007        2.0638142600
 H          1.1799539574       -3.6887439665        2.8540599549
 H         -0.9572723471       -3.5703680434        1.6340942419
 C         -1.5343412409       -2.1528829484       -0.6048675494
 H         -2.2343916731       -2.8506201332       -0.1261249595
 C         -1.4144322864       -2.5227063134       -2.0694995149
 C         -1.2743374224       -3.9672529719       -2.4420453554
 C         -2.5484871192       -3.2366596944       -2.7392961456
 H         -2.7771300298       -2.9898174945       -3.7651973178
 H         -3.4188705481       -3.4643087927       -2.1412611235
 H         -0.6255066499       -4.2258994764       -3.2644889572
 H         -1.2803281202       -4.6911506669       -1.6413095328
 H         -0.8726145312       -1.7946382715       -2.6584949278
 O         -3.5464390458       -1.6658371006        1.2872857070
