  62
        -98.94188485
 C          1.1569869217        1.3887849952        0.4977796987
 C          2.1596713341        1.1923433863       -0.4772927664
 C          3.2986449052        0.3314985085       -0.0971313494
 C          3.3006306918       -0.2427799790        1.1202225471
 C          4.3163113330       -1.1875460306        1.7065749779
 C          4.1948193936       -2.6096188311        1.1381758616
 C          4.0455990375       -2.6824189266       -0.3790279294
 H          3.8838440152       -3.7306546648       -0.6450363225
 H          3.1474090842       -2.1368682541       -0.6759343156
 C          5.2440033269       -2.1743837524       -1.1778414709
 H          6.1324557452       -2.7392095869       -0.8869465672
 H          5.0433058823       -2.3899796925       -2.2303785949
 C          5.5508828547       -0.6799985502       -1.0512834620
 H          6.2323316351       -0.4187884623       -1.8660840594
 H          6.0786097058       -0.4623329531       -0.1265100959
 C          4.3363219097        0.2321400583       -1.1893861836
 H          4.6875468584        1.2582314384       -1.3526150292
 H          3.7894165503       -0.0323654518       -2.1017671883
 H          5.0709495601       -3.1816686867        1.4491754742
 H          3.3102828616       -3.0768573506        1.5794032493
 H          5.3198216747       -0.7985179161        1.5625125603
 H          4.1240712047       -1.2266535064        2.7812184904
 O          2.2881873224       -0.0549357536        2.0156738669
 C          1.1974082034        0.7405698922        1.7308031811
 O          0.3419529638        0.7954870312        2.6393960573
 H         -0.5704944934       -0.3358001224       -0.1408617225
 C         -1.0437985771        0.2536908105       -0.9110842132
 C         -0.8560719558        1.6286857929       -0.9333650862
 C         -1.4500442650        2.3605335853       -1.9537078691
 C         -2.1998767654        1.7206708461       -2.9260017861
 C         -2.4000508777        0.3524597826       -2.8876355258
 C         -1.8152280057       -0.3870838224       -1.8661411835
 N         -1.9981305625       -1.7754803702       -1.7664755887
 S         -2.1769065326       -2.4490447651       -0.2436457124
 O         -0.8978372171       -2.5607103607        0.4117045412
 O         -2.8676600083       -3.6982520644       -0.4872968824
 C         -3.2578120907       -1.3229562071        0.6212598533
 C         -2.7889737662       -0.5230427207        1.6427279284
 C         -3.6608996820        0.3747459495        2.2403648223
 C         -4.9757555259        0.4577717231        1.8113946188
 C         -5.4340074703       -0.3597570104        0.7889648025
 C         -4.5682104372       -1.2562452778        0.1861438931
 H         -4.8884501495       -1.9163349313       -0.6035721359
 H         -6.4585416769       -0.2976120758        0.4595832575
 H         -5.6460792822        1.1617284468        2.2787213062
 H         -3.2951868779        1.0058615941        3.0349015937
 H         -1.7598837660       -0.5944646951        1.9604525485
 H         -2.6500757592       -2.1679580857       -2.4297201528
 H         -2.9936113051       -0.1415969768       -3.6412748132
 H         -2.6458827538        2.2988619339       -3.7207594638
 H         -1.3195572201        3.4294244709       -1.9923809781
 C         -0.0536499883        2.2481806561        0.1861203115
 H         -0.6803652637        2.2224709371        1.0908274727
 C          0.3566550929        3.6810915187       -0.0807777702
 C         -0.5677970376        4.8075465154        0.2682385764
 C          0.6660018585        4.5706237717        1.0846398445
 H          1.4867693355        5.2667106569        0.9988969402
 H          0.5550988062        4.1481193496        2.0730551867
 H         -0.5929072880        5.6725804786       -0.3771536470
 H         -1.5206541548        4.5551431571        0.7082786565
 H          0.9776768129        3.7781166641       -0.9633886461
 O          2.1161114209        1.7079543705       -1.6257329834
