  62
        -98.94572927
 C          2.4820812392        1.1404724493       -0.0369414488
 C          3.0890227531        0.2544974734        0.8847338109
 C          3.6057646246       -0.9988890770        0.3261178003
 C          3.4809596705       -1.2431279390       -0.9912939199
 C          3.9646974338       -2.4717234454       -1.7125883524
 C          2.9809124251       -3.6487480865       -1.6578431842
 C          2.8797098963       -4.3477871505       -0.3015212471
 H          2.3282800550       -5.2765828014       -0.4600594389
 H          3.8786917709       -4.6152633718        0.0445844317
 C          2.1606117710       -3.5287876802        0.7799182090
 H          1.4405464956       -4.1646864253        1.3011089982
 H          1.5845863592       -2.7279138267        0.3075295805
 C          3.0865136759       -2.9265002729        1.8376645745
 H          3.5632840237       -3.7293732174        2.4041724066
 H          2.4774805796       -2.3414909620        2.5321152348
 C          4.1796351913       -2.0081741201        1.2744716270
 H          4.6318913097       -1.4641180728        2.1072473525
 H          4.9502700194       -2.5998056253        0.7815884148
 H          3.3081430506       -4.3830351311       -2.3975315854
 H          1.9915723318       -3.2928038816       -1.9571060476
 H          4.9283890067       -2.7813053166       -1.3075086338
 H          4.1002178932       -2.1854421099       -2.7576372982
 O          2.8929753613       -0.3653836921       -1.8457091793
 C          2.3441856282        0.8251219765       -1.3892852578
 O          1.7871311828        1.5019330370       -2.2732610430
 O          3.1863693519        0.4963394040        2.1190922617
 C          1.8629439494        2.4261282786        0.4863959720
 C          0.3643100525        2.3129529141        0.3490579330
 C         -0.4228569033        3.2006322444       -0.3705285722
 C         -1.7846050592        2.9822493719       -0.4983389303
 C         -2.3878927814        1.8838250808        0.0861315553
 C         -1.6097092857        0.9947931214        0.8167050152
 C         -0.2505621379        1.2191320290        0.9482714212
 H          0.3556172040        0.5195098241        1.5118848506
 N         -2.2163794777       -0.1387913627        1.4058124128
 S         -2.7718460972       -1.2850085434        0.3010325247
 O         -2.8218571110       -2.5314074993        1.0347093723
 O         -1.9758876225       -1.2827783291       -0.9063781266
 C         -4.4307121924       -0.7455340896       -0.0498114554
 C         -4.7751930048       -0.3625487173       -1.3309206077
 C         -6.0721472072        0.0619440968       -1.5760392185
 C         -6.9945962875        0.0962500677       -0.5413464913
 C         -6.6323192469       -0.2934719281        0.7397469251
 C         -5.3383481267       -0.7203738884        0.9913326807
 H         -5.0145691720       -1.0366937385        1.9687402769
 H         -7.3525048741       -0.2650563082        1.5414130329
 H         -8.0020271966        0.4291919479       -0.7349671973
 H         -6.3553370964        0.3654313659       -2.5711182255
 H         -4.0209227762       -0.3990472670       -2.1008803474
 H         -1.6097788156       -0.5991267408        2.0713394902
 H         -3.4464255394        1.7088657332       -0.0171348947
 H         -2.3836531142        3.6765166780       -1.0674565692
 H          0.0315572311        4.0544881910       -0.8450810324
 H          2.1066975453        2.4503007618        1.5587987292
 C          2.4574448293        3.6471816264       -0.1784467648
 C          2.3945101470        4.9757921370        0.5123712882
 C          3.7016638725        4.2528899261        0.3960834640
 H          4.4475834433        4.6373917463       -0.2830596687
 H          4.1148129507        3.7939915682        1.2825235176
 H          2.2445661200        5.8613840584       -0.0860451835
 H          1.9199298221        5.0118525749        1.4811921537
 H          2.3659764056        3.6237901219       -1.2579210540
