  62
        -98.93704066
 C         -1.9663969926       -1.4421845606        0.0529604001
 C         -2.3310274359       -0.4456827908       -0.8837371694
 C         -3.7000223123        0.0852038914       -0.7669906680
 C         -4.5140198445       -0.3829599768        0.1954121890
 C         -5.8962786770        0.1227988411        0.4947389530
 C         -5.8119175713        1.4512070696        1.2735781738
 C         -6.3562330760        2.6626730355        0.5161533632
 H         -7.4476650819        2.6290215960        0.5301350514
 H         -6.0474316963        3.5557816812        1.0636853565
 C         -5.9110708206        2.7942953415       -0.9436627137
 H         -6.5073136645        2.1296563278       -1.5706748091
 H         -6.1485195251        3.8131985963       -1.2571108496
 C         -4.4256377293        2.5284243127       -1.2203287617
 H         -3.8297051686        2.7035710283       -0.3240123932
 H         -4.0872772680        3.2460476196       -1.9707883305
 C         -4.1180436864        1.1233292549       -1.7718482110
 H         -4.9784067486        0.7571496408       -2.3386525147
 H         -3.2757129766        1.1987489645       -2.4656714724
 H         -6.3624593200        1.3591267959        2.2110299807
 H         -4.7672765997        1.6265432653        1.5400496624
 H         -6.4489975461        0.2566854745       -0.4324343279
 H         -6.3976491751       -0.6373173133        1.0941537025
 O         -4.1309448643       -1.3406435510        1.0777866684
 C         -2.8628190780       -1.8898003842        1.0298544831
 O         -2.6536367222       -2.7633386934        1.8946494782
 O         -1.5703186860       -0.0017751142       -1.7867263763
 C         -0.5979950265       -2.1077073808        0.0818895153
 C          0.4285712843       -1.2205283768        0.7452949906
 C          1.0329022284       -1.6004738876        1.9378786258
 C          1.9815540167       -0.7903293031        2.5378379537
 C          2.3476085051        0.4119743059        1.9604559581
 C          1.7475239064        0.8002974489        0.7691088961
 C          0.8024668888       -0.0164526761        0.1654558341
 H          0.3317385030        0.2951651456       -0.7550228412
 N          2.1167688116        2.0176222588        0.1706076194
 S          3.7541922644        2.3317885958        0.0291458180
 O          4.2521577265        2.8689887890        1.2716248611
 O          3.8837230709        3.1937081094       -1.1248083570
 C          4.5053422828        0.7429854169       -0.2823688211
 C          4.0935097757        0.0353191529       -1.3944175291
 C          4.6370295792       -1.2165356423       -1.6303169728
 C          5.5775811424       -1.7376967292       -0.7549776131
 C          5.9846151951       -1.0124652550        0.3537337396
 C          5.4426113380        0.2396848958        0.5962922209
 H          5.7262709701        0.8354074809        1.4485975324
 H          6.7177321373       -1.4191163796        1.0315346948
 H          5.9947884667       -2.7149223741       -0.9399017009
 H          4.3215864220       -1.7816913116       -2.4925967024
 H          3.3620283378        0.4676407482       -2.0584205628
 H          1.6280340830        2.2064621270       -0.6924487400
 H          3.0785041253        1.0598440820        2.4169329566
 H          2.4398931496       -1.0971827241        3.4654653749
 H          0.7426992846       -2.5319914710        2.4016099870
 H         -0.7211458241       -3.0000605563        0.7094700135
 C         -0.1238419507       -2.5505975829       -1.2897003640
 C          0.9453270738       -3.5953381087       -1.3837035239
 C         -0.4637419151       -3.9271272529       -1.7720629638
 H         -0.6953102294       -4.0636893812       -2.8178056137
 H         -1.0408749041       -4.5594224294       -1.1128093292
 H          1.6843957757       -3.5059762758       -2.1645752855
 H          1.3268504244       -4.0048332047       -0.4608627251
 H         -0.1200164448       -1.7553608948       -2.0227883996
