  62
        -98.93363918
 C         -1.6382583892       -1.1157981971        0.0571433993
 C         -2.0928892998        0.1324246942       -0.4341782643
 C         -3.5533027756        0.2715229585       -0.5894980381
 C         -4.3559566400       -0.7545857178       -0.2575328288
 C         -5.8578322196       -0.7385943932       -0.2915846502
 C         -6.4046416302        0.0255301303        0.9311066029
 C         -7.1408304326        1.3205241982        0.5873849570
 H         -8.1289123258        1.0732989507        0.1935361849
 H         -7.2859820234        1.8713744007        1.5191362989
 C         -6.4470740544        2.2334224746       -0.4284369279
 H         -6.6223520709        1.8595793277       -1.4383800093
 H         -6.9379218290        3.2071732518       -0.3681754825
 C         -4.9380564610        2.4305672596       -0.2337598095
 H         -4.6561595403        2.2511547637        0.8040138033
 H         -4.7008184281        3.4741519501       -0.4507122697
 C         -4.0547685496        1.5706555936       -1.1571100969
 H         -4.5838046025        1.3799957715       -2.0953391277
 H         -3.1501974865        2.1369015455       -1.3995340729
 H         -7.0876212473       -0.6184311397        1.4871504978
 H         -5.5687792707        0.2471064788        1.5979589836
 H         -6.1999545593       -0.2783528921       -1.2158709923
 H         -6.1937445493       -1.7755824527       -0.2722486474
 O         -3.8828987775       -1.9279777440        0.2371322146
 C         -2.5253728259       -2.1343454403        0.4159349036
 O         -2.2378341573       -3.2461909277        0.9010602569
 O         -1.3353938174        1.0907392025       -0.7348644982
 C         -0.1623516606       -1.4103179393        0.2674784352
 C          0.5236637671       -0.2386984233        0.9239103301
 C          0.1743059325        0.0948827061        2.2301702134
 C          0.7744702777        1.1603864288        2.8719525650
 C          1.7534978761        1.9018954829        2.2336015355
 C          2.1072677061        1.5784953727        0.9296161819
 C          1.4931264715        0.5146201547        0.2822132031
 H          1.7486517753        0.3183388428       -0.7448450122
 N          3.0938097645        2.3100002058        0.2560356237
 S          4.0960042965        1.5668130968       -0.8481564601
 O          5.2876113679        2.3896668120       -0.8591345279
 O          3.4369932308        1.4082485709       -2.1196803401
 C          4.4726904365       -0.0345792265       -0.1541281060
 C          4.9740257459       -0.0981287528        1.1309423846
 C          5.2637077493       -1.3377473864        1.6771711007
 C          5.0521250524       -2.4879669717        0.9323866431
 C          4.5576080927       -2.4076223226       -0.3599016742
 C          4.2632061937       -1.1698758917       -0.9096580636
 H          3.8701305753       -1.0621055304       -1.9081890932
 H          4.3951090412       -3.3029738236       -0.9389962011
 H          5.2738311610       -3.4528536881        1.3603447100
 H          5.6511746815       -1.4040271528        2.6809562899
 H          5.1358093281        0.8132558122        1.6828456064
 H          3.5702989772        3.0089468821        0.8052180726
 H          2.2265630057        2.7335801522        2.7331077774
 H          0.4852711044        1.4130055218        3.8810014223
 H         -0.5874835772       -0.4880674866        2.7303363969
 H         -0.1420128984       -2.2516120031        0.9798975828
 C          0.5614226595       -1.8867390863       -0.9829660806
 C         -0.1432269217       -2.6946982929       -2.0299884637
 C          0.3029668248       -1.2976506143       -2.3354621453
 H          1.1408332516       -1.1525511694       -3.0025679454
 H         -0.4424157278       -0.5214498370       -2.4099181062
 H          0.3864107728       -3.5174331576       -2.4859222678
 H         -1.1998045826       -2.8763443054       -1.8962195251
 H          1.5865407391       -2.1714075563       -0.7651218220
