  62
        -98.93425596
 C         -1.8188221550       -1.6138648673        0.4380896478
 C         -1.8965171469       -0.4311303790        1.2138424503
 C         -2.9831405250        0.5144654543        0.9006102581
 C         -3.8276652489        0.2124332596       -0.1027695225
 C         -4.9633278066        1.0449123745       -0.6327154682
 C         -4.4767017716        2.2055160783       -1.5196261899
 C         -3.2239403903        2.9231141431       -1.0206808283
 H         -2.9024617625        3.6088447245       -1.8092551748
 H         -2.4259305170        2.1915576188       -0.8788167662
 C         -3.4056314254        3.7359717938        0.2591853494
 H         -4.1376127806        4.5267262148        0.0783516774
 H         -2.4499092232        4.2155412736        0.4857152581
 C         -3.8489152182        2.9485290882        1.4922333705
 H         -4.8990358088        2.6789367366        1.4192510576
 H         -3.7600899729        3.6161973153        2.3546223908
 C         -3.0048634273        1.7176872197        1.8116708217
 H         -3.3042108006        1.3418583624        2.7981625726
 H         -1.9579139122        2.0191926581        1.9225013917
 H         -5.2917528957        2.9225822177       -1.6299159835
 H         -4.2500765282        1.7980767217       -2.5076871133
 H         -5.5708680759        1.4082252308        0.1911632858
 H         -5.5863177684        0.3826871211       -1.2377507837
 O         -3.7074358884       -0.9290190174       -0.8345630125
 C         -2.7083668360       -1.8624274018       -0.6070174304
 O         -2.7412415319       -2.8327183684       -1.3853036429
 O         -1.0817868737       -0.1715017356        2.1406448206
 C         -0.6767407592       -2.5596141501        0.7684018966
 C          0.5406088326       -2.1024982976        0.0069055783
 C          0.5360000146       -2.0447834467       -1.3840570397
 C          1.6381736967       -1.5664948083       -2.0682035279
 C          2.7553005713       -1.1190396146       -1.3831425932
 C          2.7594993112       -1.1525172970        0.0045254920
 C          1.6596306999       -1.6522714877        0.6900625472
 H          1.6623348163       -1.6643146152        1.7712168513
 N          3.8756014396       -0.6601843088        0.7056890547
 S          4.4317260166        0.8574182692        0.2616451622
 O          5.2505950367        0.7405220252       -0.9188169412
 O          5.0907738962        1.3793107780        1.4375230494
 C          2.9625669858        1.7996786376       -0.1087400595
 C          2.0817018869        2.0621922800        0.9214965417
 C          0.9181091268        2.7606816213        0.6467798281
 C          0.6528869880        3.1777627428       -0.6482007488
 C          1.5479124688        2.9075658225       -1.6715225793
 C          2.7150350969        2.2111159508       -1.4023719895
 H          3.4377177954        1.9823166614       -2.1684659787
 H          1.3377298356        3.2345769240       -2.6771017781
 H         -0.2571605248        3.7166368222       -0.8602587797
 H          0.2204600044        2.9656883804        1.4431902270
 H          2.3125643776        1.7271937960        1.9199707429
 H          3.7799129733       -0.7210176922        1.7092420901
 H          3.6197716086       -0.7372484692       -1.9015347626
 H          1.6262770231       -1.5339086532       -3.1470533062
 H         -0.3454416058       -2.3713837014       -1.9159935832
 H         -0.4768104032       -2.3941351973        1.8387484367
 C         -1.0127286612       -4.0318864931        0.5887147619
 C         -0.2874160874       -4.9389305514       -0.3560190969
 C         -0.0700909664       -5.0721714585        1.1191670344
 H         -0.4771715456       -5.9304500806        1.6318648899
 H          0.8737246764       -4.7277719737        1.5155069340
 H         -0.8674684871       -5.6922067921       -0.8670137563
 H          0.5137408571       -4.5298537726       -0.9510763307
 H         -2.0711743253       -4.2291917674        0.7172339109
