  62
        -98.93704078
 C          1.7561666993        1.0664433376       -0.1503173794
 C          2.3138233636       -0.1017601880       -0.7216564488
 C          3.7818370247       -0.2029739440       -0.6748072390
 C          4.4927554290        0.7978665157       -0.1240597260
 C          5.9828285753        0.8062067973        0.0680066502
 C          6.3626052757       -0.0745426329        1.2755748819
 C          7.1817651461       -1.3149534217        0.9185357430
 H          8.2096611414       -1.0128808594        0.7071685133
 H          7.2023098356       -1.9582925128        1.8007674518
 C          6.6772000467       -2.1267996404       -0.2784005616
 H          6.9899464767       -1.6460111512       -1.2065175605
 H          7.1841221374       -3.0934960932       -0.2431526656
 C          5.1630197803       -2.3671270193       -0.3368960534
 H          4.9941149102       -3.3851746778       -0.6939074148
 H          4.7234476347       -2.3040397644        0.6587988905
 C          4.4011857502       -1.4272221506       -1.2900663200
 H          3.5596725137       -1.9766402927       -1.7229282897
 H          5.0578765546       -1.1311431932       -2.1129864337
 H          6.9338667530        0.5172752530        1.9923433966
 H          5.4430307082       -0.3778249515        1.7804447726
 H          6.2820344126        1.8398328283        0.2427222646
 H          6.4720642882        0.4494463090       -0.8355523264
 O          3.9183313777        1.9094418253        0.4052780675
 C          2.5428031149        2.0720338900        0.4098385650
 O          2.1496234931        3.1324715220        0.9360424606
 O          1.6236070751       -1.0154570669       -1.2451863433
 C          0.2505457815        1.2650131600       -0.1532897771
 C         -0.4262500397        0.1002636958        0.5259628518
 C          0.0430234823       -0.3101517185        1.7721542037
 C         -0.5268337910       -1.3850531756        2.4243129020
 C         -1.5889689099       -2.0664795518        1.8554706623
 C         -2.0733937488       -1.6581075993        0.6196790650
 C         -1.4996987082       -0.5739499132       -0.0335906184
 H         -1.8865181287       -0.2910757191       -0.9980038827
 N         -3.1454418154       -2.3328182586        0.0191456213
 S         -4.3019476193       -1.4864307945       -0.8328187096
 O         -5.4694727877       -2.3416750471       -0.8012111229
 O         -3.8174818060       -1.1376336148       -2.1441807272
 C         -4.6055528201       -0.0084963150        0.1210873129
 C         -4.5445747328        1.2235031320       -0.4956129158
 C         -4.7838777461        2.3639678465        0.2546587238
 C         -5.0761034619        2.2525251554        1.6047185491
 C         -5.1388581475        1.0064309812        2.2098754603
 C         -4.9041382339       -0.1365428969        1.4635391117
 H         -4.9557606704       -1.1177683317        1.9061079042
 H         -5.3690105683        0.9232163479        3.2598016304
 H         -5.2571896725        3.1415489385        2.1880398371
 H         -4.7388348686        3.3329152487       -0.2167292830
 H         -4.3077556684        1.2658112525       -1.5461223872
 H         -3.5460400014       -3.0780864822        0.5687206771
 H         -2.0298650652       -2.9141501633        2.3575347392
 H         -0.1436993505       -1.6966046672        3.3843621349
 H          0.8749576279        0.2210726325        2.2148526955
 H          0.0617451599        2.1684549182        0.4449643400
 C         -0.2297221907        1.5102582410       -1.5683091336
 C         -1.4287201893        2.3707236644       -1.8236888830
 C         -0.0587507874        2.8759898456       -2.1603531430
 H          0.2235613088        2.9566449926       -3.1994066032
 H          0.3775642702        3.6364010006       -1.5288463353
 H         -2.0876518975        2.1006567284       -2.6354505558
 H         -1.9287291797        2.7957128111       -0.9667243920
 H         -0.0623765082        0.6597004392       -2.2198267496
