  62
        -98.93981285
 C         -1.8588173393       -0.9670290495        0.5418455306
 C         -2.4629074894        0.1418994207        1.1888575801
 C         -3.9212082394        0.2601977507        1.0648415299
 C         -4.5976243893       -0.6777875196        0.3776763902
 C         -6.0765802893       -0.6588587397        0.1238895901
 C         -6.4035543492        0.0616203298       -1.1915323902
 C         -5.7228864492        1.4229013297       -1.3353138207
 H         -4.6424246392        1.2768119697       -1.4055093105
 H         -6.0510411291        1.8524811193       -2.2843341909
 C         -6.0262329993        2.4071157101       -0.1969649411
 H         -6.2505564993        3.3845745600       -0.6292052815
 H         -6.9138426894        2.0826529503        0.3473834490
 C         -4.8743720394        2.6109678305        0.7892503789
 H         -5.1109081495        3.4762636608        1.4144746986
 H         -3.9582599994        2.8456709403        0.2408026689
 C         -4.5836479395        1.4340142409        1.7291099994
 H         -5.5047183695        1.1254622311        2.2281803694
 H         -3.8801197396        1.7833461712        2.4907469393
 H         -7.4860000992        0.1852166597       -1.2576920004
 H         -6.0817612491       -0.5710326606       -2.0218546300
 H         -6.4279658693       -1.6900322098        0.0601397604
 H         -6.5762125894       -0.1654779794        0.9552855098
 O         -3.9916704293       -1.7368195098       -0.2113599993
 C         -2.6113891993       -1.9048428498       -0.1675623892
 O         -2.2154156892       -2.9093209800       -0.7846686887
 O         -1.8072782295        0.9927678710        1.8499494398
 C         -0.3486372494       -1.0806143694        0.6580377307
 C          0.3263853107       -0.3679584798       -0.4865402995
 C         -0.0398388291       -0.6258713603       -1.8048620894
 C          0.5677270509        0.0502479493       -2.8459941896
 C          1.5558584909        0.9865645894       -2.5960063399
 C          1.9300467608        1.2509315699       -1.2838497699
 C          1.3178624407        0.5702738903       -0.2384142397
 H          1.5999229306        0.8072148707        0.7765992902
 N          2.9193755107        2.2026295300       -1.0077568102
 S          3.9678338606        2.0160223205        0.2729428600
 O          3.3141847905        2.3325915710        1.5176599698
 O          5.1014439006        2.8472616704       -0.0720973803
 C          4.4625512607        0.3006466805        0.2677797206
 C          4.7787133408       -0.3098971999       -0.9300978891
 C          5.1926156708       -1.6320721599       -0.9201862086
 C          5.2956666707       -2.3165507195        0.2809018217
 C          4.9840070506       -1.6879182790        1.4759984214
 C          4.5591695906       -0.3681771390        1.4711187109
 H          4.2918109605        0.1535209713        2.3763140407
 H          5.0619542605       -2.2204766687        2.4101519516
 H          5.6174152507       -3.3456476094        0.2857849121
 H          5.4331712009       -2.1240793303       -1.8487138984
 H          4.6999065208        0.2442820597       -1.8508606993
 H          3.3653423108        2.6138027497       -1.8138575103
 H          2.0257686910        1.5189034891       -3.4088904500
 H          0.2716710010       -0.1557267411       -3.8634716896
 H         -0.8049622591       -1.3617291204       -2.0004003392
 H         -0.0964345194       -0.5290056391        1.5781155105
 C          0.1372199607       -2.5126045894        0.8358061613
 C          0.9753437908       -3.2317337897       -0.1745752783
 C          1.5882151906       -2.7727089292        1.1118092815
 H          1.8495595406       -3.5089632189        1.8562532018
 H          2.2563257906       -1.9253763792        1.0726565713
 H          0.7868813608       -4.2845580898       -0.3167821780
 H          1.2425330608       -2.7111850300       -1.0802460685
 H         -0.5787171094       -3.1177674192        1.3819288515
