  62
        -98.93441318
 C         -2.3679437083       -0.9615652080        0.0887998713
 C         -3.6120308159       -0.8650828963        0.7615947900
 C         -4.6448691916       -0.0150698549        0.1450785244
 C         -4.3565363502        0.6540822146       -0.9863566275
 C         -5.2076215329        1.5540624015       -1.8575986273
 C         -6.5325737647        2.1121672470       -1.3447205172
 C         -6.4036106708        3.1145113164       -0.1983512951
 H         -5.9442081754        4.0276280058       -0.5851973029
 H         -7.4080204787        3.3684467045        0.1474463349
 C         -5.5705840632        2.6497102252        0.9936478684
 H         -4.5366729883        2.4916269178        0.6796843037
 H         -5.5621143664        3.4575324907        1.7304890579
 C         -6.0755162655        1.3891846045        1.6932397802
 H         -5.4921864803        1.2658037053        2.6097269654
 H         -7.1211486266        1.5204488766        1.9783085357
 C         -5.9470794452        0.0855051771        0.8859748399
 H         -5.9650914740       -0.7503868945        1.5914276072
 H         -6.7859776707       -0.0435804630        0.2060873455
 H         -7.2014017806        1.3021844615       -1.0688753059
 H         -6.9970366966        2.6325305924       -2.1868194926
 H         -4.5576076718        2.3850946836       -2.1491815148
 H         -5.4040942264        0.9822871390       -2.7714753005
 O         -3.1335580987        0.5567158892       -1.5818846546
 C         -2.1113516964       -0.2331592540       -1.0726404028
 O         -1.0662078889       -0.1856658983       -1.7459481624
 H          0.9757793046       -1.9918067688       -0.8062220919
 C          1.0591941653       -1.2660895425       -0.0119635272
 C         -0.0085757415       -1.0642911368        0.8477073086
 C          0.1138634351       -0.1042139010        1.8478665018
 C          1.2737718988        0.6354440699        1.9791388319
 C          2.3331333389        0.4395780573        1.1105474344
 C          2.2200243271       -0.5127879433        0.1072062487
 N          3.2805977476       -0.6963467740       -0.7941352038
 S          4.8350060782       -0.8763863778       -0.1999198597
 O          5.5537972608       -1.5994804150       -1.2265169304
 O          4.8323520706       -1.4691518365        1.1179760079
 C          5.4624046375        0.7880263165       -0.1176556862
 C          5.9912737141        1.2674829374        1.0645925287
 C          6.4843959402        2.5625487296        1.1019278723
 C          6.4413418725        3.3503740843       -0.0380394594
 C          5.9088126721        2.8531044391       -1.2183018165
 C          5.4148995373        1.5591912931       -1.2623757657
 H          4.9946144221        1.1360378361       -2.1595793845
 H          5.8760376628        3.4689541137       -2.1026826123
 H          6.8245876527        4.3581176828       -0.0068685864
 H          6.8984394549        2.9511359196        2.0184508727
 H          5.9988958671        0.6205613177        1.9273946549
 H          3.0827524008       -1.3543536063       -1.5331297894
 H          3.2384639305        1.0173497933        1.2014810439
 H          1.3539035972        1.3753142161        2.7611046790
 H         -0.7175599895        0.0578250369        2.5202975682
 C         -1.2981910364       -1.8335245608        0.7228128645
 H         -1.6761142469       -2.0276178483        1.7399544405
 C         -1.1180137418       -3.1943800058        0.0666493236
 C         -2.3025762847       -3.9490289500       -0.4563985380
 C         -1.2697101963       -3.4244272186       -1.4059846543
 H         -0.6059878190       -4.1328842001       -1.8809568351
 H         -1.5201716244       -2.5794680951       -2.0277228629
 H         -2.3541148184       -5.0135848030       -0.2847465897
 H         -3.2612434998       -3.4522987773       -0.4212331248
 H         -0.3560719482       -3.7820448321        0.5712635843
 O         -3.8567047698       -1.4728941255        1.8379461776
