  62
        -98.93905357
 C          2.3173985033        0.8349255416        0.6349418601
 C          3.4250256965        0.9557420363       -0.2400685177
 C          4.5705867915        0.0780803636        0.0480828562
 C          4.5194964751       -0.7609927860        1.0973699699
 C          5.5898770245       -1.7464485724        1.4651194779
 C          5.3481603832       -3.1061268951        0.7946684632
 C          5.0659006525       -3.0142434818       -0.7050040193
 H          4.9429203125       -4.0343552122       -1.0752702165
 H          4.1135260041       -2.5008197720       -0.8574195311
 C          6.1600103806       -2.3045143440       -1.5147582479
 H          6.3607438549       -2.8866905359       -2.4165515755
 H          7.0849248797       -2.2715322672       -0.9378996404
 C          5.7957406157       -0.8900792401       -1.9695453703
 H          4.8219807743       -0.9041395935       -2.4655155720
 H          6.5352902781       -0.5696858738       -2.7081428250
 C          5.7589863578        0.1758597411       -0.8672464855
 H          6.6883765218        0.1470090894       -0.2952714084
 H          5.6833016649        1.1530685419       -1.3526308354
 H          6.2241100313       -3.7348653281        0.9644745472
 H          4.4899131069       -3.5811310777        1.2757540337
 H          6.5587093915       -1.3498839408        1.1678962248
 H          5.5775086116       -1.8779256495        2.5484002166
 O          3.4477476922       -0.8374476900        1.9276646444
 C          2.3282307115       -0.0534461786        1.7150986565
 O          1.4203577692       -0.2281926440        2.5542066393
 H         -1.3112520982        0.3747950536        0.7833929021
 C         -1.0351771130        0.4680316796       -0.2573687514
 C          0.1591049706        1.0830090493       -0.6053410327
 C          0.5023712723        1.1671734100       -1.9510109714
 C         -0.3410802807        0.6552628301       -2.9197711603
 C         -1.5447634271        0.0685565884       -2.5715465268
 C         -1.8906781408       -0.0322489057       -1.2289282902
 N         -3.0918980210       -0.6489087753       -0.8438930060
 S         -3.8950351256       -0.0679713475        0.5223447274
 O         -3.8857834932        1.3777358361        0.5247345104
 O         -3.3540249544       -0.7139598473        1.6918694913
 C         -5.5433953864       -0.6732058483        0.2114922213
 C         -5.8307338952       -1.9938435776        0.5015778767
 C         -7.1024724377       -2.4762407529        0.2362963434
 C         -8.0602515341       -1.6352246835       -0.3111271579
 C         -7.7579065465       -0.3118277528       -0.5944394289
 C         -6.4873256613        0.1768168138       -0.3331202391
 H         -6.2087848414        1.1998226715       -0.5287491863
 H         -8.5056968585        0.3402867004       -1.0160720484
 H         -9.0495507240       -2.0131820229       -0.5151245543
 H         -7.3420575856       -3.5036336351        0.4583992964
 H         -5.0572744131       -2.6057877793        0.9360080776
 H         -3.7234898158       -0.7999790152       -1.6186360051
 H         -2.2081247486       -0.3172121760       -3.3308064828
 H         -0.0634081102        0.7251648856       -3.9607331197
 H          1.4409968252        1.6224067929       -2.2256406813
 C          1.0437606919        1.6514418361        0.4792352765
 H          0.5045549759        1.5400892996        1.4304907592
 C          1.3024494132        3.1285521701        0.2508420804
 C          0.1839038439        4.0965570302        0.4871274082
 C          1.3505451044        4.0535737037        1.4272408646
 H          2.0564637834        4.8703620729        1.4117236486
 H          1.2001800548        3.6243494624        2.4076623890
 H         -0.7603391910        3.6949427926        0.8263948290
 H          0.0878993890        4.9444155468       -0.1736489401
 H          1.9805430959        3.3284090323       -0.5677709865
 O          3.4820637778        1.7493684444       -1.2158518246
