  62
        -98.93633881
 C          1.7747995677        1.2307353856        0.3493175629
 C          2.4825757401        0.6116434744       -0.7059105945
 C          3.6642015900       -0.1891123418       -0.3267395498
 C          3.9958103526       -0.2922701261        0.9726527391
 C          5.1452946606       -1.0416347095        1.5977863581
 C          6.5116968285       -0.8990658853        0.9095695077
 C          6.9758733352       -2.1776665387        0.2101332627
 H          8.0648988877       -2.1562066656        0.1287169697
 H          6.7133087157       -3.0322307012        0.8373141941
 C          6.4123458426       -2.3897232705       -1.1939568568
 H          6.7027261840       -3.3917024091       -1.5186932501
 H          6.8769615803       -1.6788991061       -1.8807755470
 C          4.8930062775       -2.2558395463       -1.3177363749
 H          4.5813233821       -2.8068091188       -2.2077927606
 H          4.3968170988       -2.7226271577       -0.4674961504
 C          4.4130798406       -0.8054979420       -1.4766578403
 H          5.2582390262       -0.1596924693       -1.7325878780
 H          3.7192724651       -0.7400190208       -2.3208862572
 H          7.2465426817       -0.6490371551        1.6765101852
 H          6.4866374413       -0.0696854958        0.2043992748
 H          5.2045198481       -0.6665362704        2.6220984975
 H          4.8742969521       -2.0980058272        1.6689944772
 O          3.2579385883        0.2929299238        1.9604920808
 C          2.1382232776        1.0545154725        1.6826624975
 O          1.5572076825        1.5071601211        2.6907470608
 H         -0.3870278717       -0.2278265243        0.9261871263
 C         -0.8734626565        0.0551383104        0.0003247928
 C         -0.5062986380        1.2456602552       -0.6163927446
 C         -1.1488744420        1.6073832031       -1.7921754147
 C         -2.1065939441        0.7775829491       -2.3511010914
 C         -2.4532080167       -0.4161284063       -1.7469428731
 C         -1.8331125802       -0.7755964799       -0.5560894857
 N         -2.1972574733       -1.9739283460        0.0808055508
 S         -3.8277167567       -2.3347727986        0.1931385053
 O         -3.9545229098       -3.1498448712        1.3811644109
 O         -4.2751325214       -2.9430279751       -1.0351517615
 C         -4.6445414488       -0.7643156122        0.4190482701
 C         -4.2942618176        0.0002140899        1.5143468828
 C         -4.8948295695        1.2363217084        1.6883936418
 C         -5.8312651072        1.6844946440        0.7690749351
 C         -6.1769325898        0.9023394605       -0.3217034363
 C         -5.5775936995       -0.3340051444       -0.5020992044
 H         -5.8134143095       -0.9726159180       -1.3376937441
 H         -6.9067526174        1.2524771381       -1.0336246574
 H         -6.2935393624        2.6492672277        0.9059956972
 H         -4.6265072559        1.8451544617        2.5369600009
 H         -3.5652413869       -0.3767756424        2.2141702500
 H         -1.7223967405       -2.1360099031        0.9562310045
 H         -3.1831891568       -1.0806675526       -2.1798395533
 H         -2.5873533329        1.0637194066       -3.2738725090
 H         -0.8918991387        2.5327807962       -2.2798565909
 C          0.5553129536        2.0854948023        0.0522213885
 H          0.1665760207        2.4044764115        1.0303330009
 C          0.9516183598        3.3142742919       -0.7383153200
 C          0.1376062873        4.5680713697       -0.6368669747
 C          1.4937430525        4.5016628689       -0.0029708898
 H          2.3027869653        5.0596912145       -0.4499132847
 H          1.5556004975        4.4327668976        1.0736533995
 H         -0.7250834712        4.5526637231        0.0116106984
 H          0.0163382226        5.1773637817       -1.5196326148
 H          1.4030526132        3.0688883207       -1.6924016774
 O          2.1484973415        0.7177396736       -1.9145736786
