  62
        -98.93500288
 C         -2.2509688678       -1.2805595427        0.2351059637
 C         -2.4507504107       -0.2834371171        1.2209999972
 C         -3.0178419201        1.0055627748        0.7858947434
 C         -3.3097532129        1.1714000490       -0.5168680318
 C         -3.8526739517        2.3957682570       -1.2046068565
 C         -2.7803777096        3.4764200044       -1.4164069010
 C         -1.8733362571        3.7274114279       -0.2144708807
 H         -1.3592332631        2.7988452809        0.0445120572
 H         -1.1007966657        4.4354028364       -0.5278243390
 C         -2.5666724495        4.3060981314        1.0173027627
 H         -1.7892763509        4.5099302278        1.7579489266
 H         -3.0285643258        5.2591651942        0.7492484135
 C         -3.6282099164        3.4212563226        1.6744556117
 H         -3.8492077876        3.8543855856        2.6543593105
 H         -4.5576114636        3.4398634341        1.1117211771
 C         -3.1918095518        1.9814276006        1.9241405947
 H         -2.2373657603        1.9846002148        2.4627289962
 H         -3.9085833128        1.5121165715        2.6089664517
 H         -3.2774341990        4.4051322561       -1.7031354340
 H         -2.1419320451        3.1623121855       -2.2464819922
 H         -4.2163970814        2.0714953193       -2.1823762948
 H         -4.6984520312        2.7921105586       -0.6504375492
 O         -3.0969869720        0.1878794001       -1.4352844951
 C         -2.5383151844       -1.0361393179       -1.1066007169
 O         -2.3707144295       -1.7872541176       -2.0881165403
 H         -0.0949222262       -1.6501831019       -1.3182544330
 C          0.5014734103       -1.8716427165       -0.4442205337
 C         -0.1095612656       -2.3952037197        0.6871579156
 C          0.6781561366       -2.6678569007        1.7985990044
 C          2.0388877711       -2.4108902142        1.7800911219
 C          2.6357660352       -1.8553890673        0.6615412285
 C          1.8551825379       -1.5851983882       -0.4539435249
 N          2.4429364821       -0.9261421299       -1.5708930976
 S          2.3155931284        0.7504294282       -1.3805306082
 O          1.0305185463        1.1266379878       -0.8323158312
 O          2.6519661059        1.3222671528       -2.6664066267
 C          3.6060611822        1.0857640028       -0.2047411574
 C          3.2778023144        1.2922768418        1.1204407421
 C          4.2970206849        1.5036341146        2.0359896509
 C          5.6172618741        1.5026353170        1.6117824648
 C          5.9295429550        1.2945648987        0.2763300513
 C          4.9157224910        1.0815131403       -0.6439202239
 H          5.1078127362        0.9188482882       -1.6914155709
 H          6.9573068297        1.2954331602       -0.0490509107
 H          6.4074975389        1.6652833156        2.3275813297
 H          4.0552779452        1.6638682054        3.0743735182
 H          2.2370479177        1.2804509090        1.4044979457
 H          1.9813229830       -1.1676880902       -2.4389489242
 H          3.6893015227       -1.6286932461        0.6430791030
 H          2.6368137280       -2.6266137510        2.6518787399
 H          0.2113941656       -3.0597398360        2.6902901601
 C         -1.6062526540       -2.5739266721        0.7060546833
 H         -1.9133874037       -2.6798483620        1.7586430022
 C         -2.0807647957       -3.8113752690       -0.0388625537
 C         -1.2130555963       -4.5903207146       -0.9772761203
 C         -1.5659787572       -5.1628693251        0.3606356841
 H         -2.2599367442       -5.9881076208        0.4055533506
 H         -0.7876863315       -5.1950426922        1.1080169698
 H         -1.6770539249       -4.9989243340       -1.8619138270
 H         -0.2008030127       -4.2529494142       -1.1372386988
 H         -3.1311381528       -3.7469866161       -0.3026787912
 O         -2.1634472477       -0.4649214025        2.4355080513
