  62
        -98.93187315
 C          2.3819396401        0.8226141302        0.7838841001
 C          3.4399027402        0.8859628903       -0.1515758598
 C          4.5564302900       -0.0661684499        0.0378858901
 C          4.5017104298       -0.9460950601        1.0540081598
 C          5.4915881797       -2.0201517803        1.4207676497
 C          5.4236309196       -3.2390112001        0.4874785893
 C          5.3359809098       -2.9043788597       -0.9989465706
 H          5.1937415397       -3.8421105495       -1.5426696608
 H          4.4508471599       -2.2907432295       -1.1767280405
 C          6.5636046099       -2.2079212397       -1.5812454003
 H          7.4424375098       -2.8363686498       -1.4206566103
 H          6.4075572701       -2.1255013694       -2.6599493103
 C          6.8586197301       -0.8079677699       -1.0378490099
 H          7.5815427302       -0.3426497398       -1.7142945297
 H          7.3361615800       -0.8555325002       -0.0628904099
 C          5.6498117402        0.1207883803       -0.9867791298
 H          6.0056377903        1.1490316602       -0.8494055495
 H          5.1536533803        0.1179984506       -1.9640635798
 H          6.3000654095       -3.8627524602        0.6715604993
 H          4.5353948295       -3.8182312500        0.7513656891
 H          6.4963221097       -1.6088689005        1.4463990599
 H          5.2391070295       -2.3436687705        2.4330500796
 O          3.4442896597       -0.9912802502        1.9149331197
 C          2.3774319598       -0.1258717400        1.8100420998
 O          1.4967270297       -0.2874851201        2.6800073197
 O          3.4853913904        1.6951591106       -1.1156941796
 C          1.1734430202        1.7452406104        0.7400532902
 C          0.1819921802        1.2527532308       -0.2877725001
 C          0.3988013304        1.4096044311       -1.6523263400
 C         -0.5272033796        0.9373524214       -2.5649465202
 C         -1.6816874497        0.3026934115       -2.1417977505
 C         -1.9057627599        0.1371388812       -0.7816308706
 C         -0.9776569199        0.6175465308        0.1338244897
 H         -1.1460626900        0.4771589706        1.1936141596
 N         -3.0646046900       -0.5281517888       -0.3408636908
 S         -4.5190563099       -0.1294957584       -1.1038854909
 O         -4.6136751398       -0.8857240381       -2.3274577711
 O         -4.6296965797        1.3056345516       -1.2394819205
 C         -5.7075975200       -0.7364896186        0.0762744488
 C         -6.2504384600        0.1391710112        0.9974223790
 C         -7.1580955802       -0.3436791089        1.9268947188
 C         -7.5032488004       -1.6868194688        1.9209927084
 C         -6.9497662304       -2.5533838387        0.9900509482
 C         -6.0423126102       -2.0771433585        0.0572646985
 H         -5.5941072402       -2.7110319984       -0.6898840817
 H         -7.2228523005       -3.5962696586        0.9875484379
 H         -8.2104954605       -2.0596784589        2.6449207482
 H         -7.5923252902        0.3279548210        2.6498969589
 H         -5.9607753299        1.1771549312        0.9587618293
 H         -3.1589830201       -0.5006763191        0.6652819092
 H         -2.4126316797       -0.0624406083       -2.8454229507
 H         -0.3487577794        1.0645795717       -3.6223876302
 H          1.3075075205        1.8822626311       -1.9905014898
 H          0.7006015401        1.6512260402        1.7270719601
 C          1.5373893904        3.2005884104        0.5248730306
 C          0.5315915305        4.2543254204        0.8742188807
 C          1.7602983104        4.0821517401        1.7149565508
 H          2.5332879305        4.8339024100        1.6607972211
 H          1.6508615702        3.6390469198        2.6943652307
 H          0.4575633907        5.1254493406        0.2416262810
 H         -0.4133028196        3.9273733205        1.2819979106
 H          2.1647600205        3.3685029305       -0.3396410893
