  62
        -98.93601231
 C         -2.3239625625       -0.6307118186        0.0516623061
 C         -3.4094698685       -0.5733387274        0.9574748861
 C         -4.4360649841        0.4404890431        0.6750513438
 C         -4.2786921186        1.2526939350       -0.3862430924
 C         -5.2705495357        2.2818301764       -0.8490074071
 C         -6.4308997462        1.5947781785       -1.5972390605
 C         -7.7871324887        1.7106622913       -0.9011335348
 H         -8.1773173299        2.7197234301       -1.0496918559
 H         -8.4695048251        1.0173987974       -1.3975771757
 C         -7.7925567126        1.4237108415        0.6034920126
 H         -8.8353104075        1.2835658193        0.8962456318
 H         -7.4327998404        2.2994448806        1.1456428541
 C         -6.9855598539        0.2003007965        1.0569714122
 H         -6.8804058808       -0.5154427728        0.2413255793
 H         -7.5455356056       -0.3010778559        1.8490646011
 C         -5.5939999153        0.5271965984        1.6306370180
 H         -5.6131837764        1.5179601541        2.0931034968
 H         -5.3617752859       -0.1972621212        2.4169017712
 H         -6.5227159754        2.0218282068       -2.5970063823
 H         -6.1768950062        0.5408386722       -1.7285979344
 H         -5.6440975273        2.8427506970        0.0047442017
 H         -4.7423696344        2.9661515410       -1.5131174015
 O         -3.2122294432        1.1774960093       -1.2240983684
 C         -2.2096526550        0.2383246785       -1.0327806714
 O         -1.2979156874        0.2811006793       -1.8797248426
 H          1.1446132180       -1.8333602334       -1.1239465636
 C          1.1942635111       -1.1518901264       -0.2891638194
 C          0.0824729032       -0.9569430974        0.5131321629
 C          0.1835163108       -0.0721282299        1.5843952302
 C          1.3601148417        0.6066342929        1.8326673520
 C          2.4637677309        0.4219016899        1.0172434315
 C          2.3777315118       -0.4637377323       -0.0468276353
 N          3.4878584187       -0.6489465140       -0.8850997836
 S          4.9999763518       -0.8946301121       -0.2061178206
 O          5.7508095920       -1.6158965848       -1.2105886730
 O          4.9017868738       -1.5186213112        1.0929059612
 C          5.6745575574        0.7455381838       -0.0476799217
 C          5.7482079998        1.5310180988       -1.1811703608
 C          6.2793883196        2.8065809801       -1.0780701461
 C          6.7283787562        3.2715488921        0.1491306460
 C          6.6512718175        2.4692992471        1.2770845208
 C          6.1199744877        1.1925108122        1.1807042320
 H          6.0362608611        0.5355452554        2.0318917729
 H          7.0013720926        2.8325641400        2.2299467391
 H          7.1408140237        4.2651908006        0.2264755047
 H          6.3412196170        3.4332282292       -1.9532291666
 H          5.3923674980        1.1319404201       -2.1164249791
 H          3.3219882748       -1.2777963858       -1.6567922044
 H          3.3834880104        0.9525941406        1.2011092570
 H          1.4204220945        1.2900094875        2.6661709780
 H         -0.6799383616        0.0762084541        2.2186894605
 C         -1.2319014967       -1.6603600586        0.2825157914
 H         -1.5088974513       -2.1749820963        1.2141128259
 C         -1.2049404626       -2.6733078712       -0.8419642433
 C         -0.6133720442       -4.0312196114       -0.6122574064
 C         -2.0963695525       -3.8744927371       -0.7595133258
 H         -2.5658850182       -4.2311542451       -1.6640139164
 H         -2.7127346533       -3.9763074384        0.1215930163
 H         -0.2196887507       -4.2441289600        0.3702470899
 H         -0.0653044774       -4.4999558403       -1.4158928324
 H         -1.0759119585       -2.2157363923       -1.8165163058
 O         -3.5120320687       -1.3325235264        1.9589285330
