  62
        -98.94320449
 C         -1.8046262398       -0.1251844094        0.3282295396
 C         -2.7275958698       -0.6598113906       -0.6041528897
 C         -3.9829761697        0.0886994992       -0.7590160208
 C         -4.1828759698        1.2236868101       -0.0667652224
 C         -5.3966563097        2.1095151200       -0.1441714836
 C         -6.5603977398        1.6535828213        0.7467487069
 C         -7.2996648298        0.4053552406        0.2629644086
 H         -8.2154560898        0.3274425114        0.8523608387
 H         -7.5935477697        0.5398763192       -0.7784704416
 C         -6.5041177598       -0.8990334292        0.4116560004
 H         -5.6766337398       -0.7433616283        1.1077138303
 H         -7.1459637898       -1.6691707986        0.8454031515
 C         -5.9496862797       -1.4562952610       -0.8994170188
 H         -6.7758033397       -1.7402432019       -1.5550464084
 H         -5.3743558798       -2.3571373007       -0.6721720275
 C         -5.0334973497       -0.4884341421       -1.6595449601
 H         -4.5241860897       -1.0462726232       -2.4489312493
 H         -5.6219334197        0.3067556173       -2.1164820812
 H         -6.1807031798        1.4843332226        1.7571009472
 H         -7.2756540898        2.4779803813        0.7949747158
 H         -5.0783494198        3.1010339005        0.1853247850
 H         -5.7342860997        2.1793253386       -1.1786350838
 O         -3.2602617698        1.7202732013        0.8004862370
 C         -2.0695198798        1.0533447016        1.0320285580
 O         -1.3372882999        1.6020858628        1.8813863472
 O         -2.5386008797       -1.7038893016       -1.2797015683
 C         -0.4615331298       -0.7793204590        0.6196425906
 C          0.5067025402       -0.4679249605       -0.4968140298
 C          0.4707991203       -1.1368961922       -1.7162142389
 C          1.3504656603       -0.7961131436       -2.7269986593
 C          2.2931278503        0.1992875666       -2.5387575306
 C          2.3357372503        0.8759865283       -1.3261171416
 C          1.4432538202        0.5413551897       -0.3170874512
 H          1.4724593502        1.0920376410        0.6118476481
 N          3.2824326503        1.8934442586       -1.1029955629
 S          4.2252741302        1.8064275105        0.2777066272
 O          3.4458692902        2.1407885021        1.4414493467
 O          5.3596613902        2.6600462701       -0.0001975339
 C          4.7424133202        0.1007211106        0.3388409496
 C          5.7793245202       -0.2968045606       -0.4827723398
 C          6.1425004502       -1.6333119806       -0.5059250379
 C          5.4589366302       -2.5468653595        0.2820527733
 C          4.4214533301       -2.1320718084        1.1023786727
 C          4.0561198802       -0.7953616483        1.1327189708
 H          3.2582095201       -0.4308013074        1.7595531303
 H          3.8925466601       -2.8442241975        1.7156059036
 H          5.7369970702       -3.5886720795        0.2603277547
 H          6.9525017303       -1.9585951115       -1.1385815774
 H          6.2902543403        0.4473011686       -1.0721396608
 H          3.8610383403        2.0955463475       -1.9062169432
 H          2.9831193504        0.4607483155       -3.3267542410
 H          1.3062271904       -1.3166641049       -3.6714700186
 H         -0.2743056597       -1.8988850324       -1.8778647279
 H         -0.0882485899       -0.2871750177        1.5282244299
 C         -0.5781543898       -2.2650824886        0.8932300026
 C          0.5086367201       -2.9458310975        1.6667820536
 C         -0.8346744299       -2.7277630667        2.2945462832
 H         -1.4812320499       -3.5792400265        2.4453485744
 H         -0.9239171599       -1.9723508456        3.0624978922
 H          0.7894459501       -3.9495792079        1.3882187050
 H          1.3284015701       -2.3339551571        2.0116769428
 H         -1.0582344698       -2.8181154897        0.0976644133
