  62
        -98.93633921
 C          2.4089438710        0.2175023489       -0.4823773309
 C          3.6551479529        0.6858554154       -0.9722032233
 C          4.7877263281        0.6197261773       -0.0398117973
 C          4.5775132721        0.1872942296        1.2164818510
 C          5.6467539407        0.0194838845        2.2559532055
 C          6.2367017490       -1.3973923530        2.2205925825
 C          6.6395374667       -1.8646566627        0.8218195560
 H          7.0695208862       -2.8633635842        0.9240145984
 H          5.7420538661       -1.9633504219        0.2067923249
 C          7.6427595361       -0.9465495118        0.1096221084
 H          8.1320919673       -0.2977915295        0.8369428413
 H          8.4187421518       -1.5638464077       -0.3479212621
 C          7.0393463538       -0.0910439762       -1.0059894748
 H          6.4705155221       -0.7274152361       -1.6888666963
 H          7.8599632275        0.3497220592       -1.5782515461
 C          6.1320234568        1.0581668329       -0.5487226165
 H          6.6501973492        1.6604834636        0.2003110069
 H          5.9310311266        1.6901992895       -1.4188280485
 H          7.1060549602       -1.4256487655        2.8799125106
 H          5.4903661759       -2.0925670354        2.6120102713
 H          6.4303196852        0.7553860127        2.0858274088
 H          5.2025541937        0.1950154546        3.2371872283
 O          3.3576900434       -0.1924385563        1.6711654986
 C          2.2429676138       -0.1974774848        0.8401377944
 O          1.2021344741       -0.5835916298        1.4019688754
 H         -1.2241461782       -0.8024477504       -0.7239137224
 C         -1.1319948267        0.2443901926       -0.4793966828
 C          0.0456501624        0.9165290692       -0.7624128536
 C          0.1453605575        2.2606956820       -0.4130378397
 C         -0.9013332857        2.9083601479        0.2135641763
 C         -2.0719571725        2.2306700746        0.5054741917
 C         -2.1830383903        0.8912107890        0.1603300922
 N         -3.3609913237        0.1903370209        0.4746434729
 S         -4.8299890597        0.9705577456        0.1877175937
 O         -4.8101607940        1.5988979981       -1.1149033037
 O         -5.1155312741        1.8422734539        1.2998446776
 C         -5.9599038744       -0.4075137833        0.1952498726
 C         -6.3062825949       -1.0019238799       -1.0034861925
 C         -7.1679893642       -2.0873690634       -0.9891589332
 C         -7.6636485819       -2.5590050408        0.2171382340
 C         -7.3068719365       -1.9517563314        1.4120652401
 C         -6.4462678236       -0.8655336202        1.4049607304
 H         -6.1487841350       -0.3569462060        2.3070948159
 H         -7.6966334833       -2.3197562411        2.3474024405
 H         -8.3349593422       -3.4031675903        0.2256688539
 H         -7.4496292569       -2.5595138381       -1.9166047559
 H         -5.9052023394       -0.5952156946       -1.9180479334
 H         -3.3603008330       -0.7483541929        0.1001650049
 H         -2.8979093407        2.7223466212        0.9939817497
 H         -0.8076404268        3.9508072578        0.4799516012
 H          1.0622254621        2.7908822799       -0.6342385535
 C          1.2254807010        0.2594666462       -1.4328006795
 H          1.5588115893        0.9233013888       -2.2482372864
 C          0.8922356402       -1.0769224676       -2.0786917750
 C          1.9658822971       -2.0892204855       -2.3413938370
 C          0.9057633045       -2.3698041602       -1.3212244545
 H          0.1541566445       -3.1090314453       -1.5582206590
 H          1.1704979650       -2.3359694411       -0.2762507145
 H          2.9624111878       -1.8595489299       -1.9931589744
 H          1.9439363903       -2.6330051221       -3.2737973456
 H          0.1330911735       -0.9720107695       -2.8483578963
 O          3.8114428897        1.1412503382       -2.1369270901
