  62
        -98.93805450
 C         -2.5624413070       -1.1745676315        0.2188162781
 C         -2.6692291947       -0.3059220427       -0.8910859656
 C         -3.4782592145        0.9158477306       -0.7021435996
 C         -4.0598091231        1.1303354648        0.4927172420
 C         -4.8740288499        2.3191335012        0.9283116455
 C         -4.0015600400        3.5473873375        1.2386020933
 C         -2.8797486307        3.8116872090        0.2369489319
 H         -2.2412885149        2.9283024292        0.1706563647
 H         -2.2657800967        4.6247637153        0.6336855354
 C         -3.3379091986        4.2127524015       -1.1632463314
 H         -2.4409406659        4.4359503414       -1.7464516098
 H         -3.9277244741        5.1297304984       -1.0966822263
 C         -4.1534332008        3.1668958891       -1.9256311454
 H         -4.2100537834        3.4957289674       -2.9674192565
 H         -5.1756753682        3.1265821644       -1.5593528240
 C         -3.5425800680        1.7688745782       -1.9461220452
 H         -2.5129219859        1.8324226333       -2.3161342886
 H         -4.0787436454        1.1667018337       -2.6896054839
 H         -3.5419709061        3.3947527715        2.2184710998
 H         -4.6485328326        4.4236613285        1.3034108916
 H         -5.3971285952        2.0253143011        1.8409954848
 H         -5.6232222552        2.5531111903        0.1780406347
 O         -3.9263319003        0.2616202816        1.5371827490
 C         -3.1783344135       -0.8950410668        1.4364549057
 O         -3.1316458290       -1.5766418326        2.4822757469
 O         -2.1060236139       -0.5262496187       -1.9946827020
 C         -1.7256765127       -2.4354641768        0.1134135979
 C         -0.2993678056       -2.0873470514       -0.2419471920
 C          0.4551537566       -2.8104673194       -1.1563184503
 C          1.7627306510       -2.4467712992       -1.4294665978
 C          2.3452245260       -1.3605291163       -0.8033736532
 C          1.6054280493       -0.6394276312        0.1249300470
 C          0.3000020734       -1.0130985538        0.4040902703
 H         -0.2729311772       -0.4516961741        1.1333463897
 N          2.1800925315        0.4755563632        0.7595630474
 S          3.6917402805        0.3014886402        1.4689809464
 O          3.9200674651       -1.0576837706        1.9018216906
 O          3.7466196142        1.3208527235        2.4941797176
 C          4.8250042779        0.7285480894        0.1642705081
 C          4.6717547991        1.9546606091       -0.4527110404
 C          5.5485127018        2.3077304036       -1.4659087166
 C          6.5593710850        1.4350106883       -1.8407329244
 C          6.7018138970        0.2090355233       -1.2091746021
 C          5.8274123992       -0.1507452041       -0.1952682953
 H          5.8959014177       -1.0953030199        0.3204872471
 H          7.4882404861       -0.4677342730       -1.5022582625
 H          7.2399885898        1.7126027220       -2.6300322439
 H          5.4403651626        3.2600204598       -1.9597238865
 H          3.8750026888        2.6040409183       -0.1299526449
 H          1.5488023819        0.9575522493        1.3827667266
 H          3.3593931417       -1.0685495363       -1.0216542304
 H          2.3349515578       -3.0148318401       -2.1468813119
 H          0.0178620812       -3.6573583374       -1.6590013790
 H         -1.7238774264       -2.8839907612        1.1185245430
 C         -2.3673350687       -3.4095180567       -0.8532059228
 C         -2.2203225079       -4.8867629820       -0.6506398085
 C         -3.5365673601       -4.2213953308       -0.3860246728
 H         -4.3519809538       -4.3949388105       -1.0719781302
 H         -3.8500310569       -4.0915759842        0.6400431828
 H         -2.1356291296       -5.5209756136       -1.5201967530
 H         -1.6432399574       -5.2210564275        0.1984548353
 H         -2.3949772835       -3.0286422966       -1.8675048487
