  62
        -98.93939244
 C          1.7889969456        1.5384141809        0.1932408919
 C          1.6035853492        0.2327375974       -0.3148162097
 C          2.6413539925       -0.7637541700        0.0233191764
 C          3.6872964977       -0.3829965656        0.7798791605
 C          4.8712239879       -1.2031131252        1.2206317231
 C          5.8857638067       -1.4419008119        0.0917724291
 C          5.2731767506       -1.8525697490       -1.2443024632
 H          4.5820448843       -1.0752323862       -1.5747089019
 H          6.0818293851       -1.9006811283       -1.9784980502
 C          4.5595652000       -3.2025278638       -1.2451175866
 H          4.2753972374       -3.4166005068       -2.2786461737
 H          5.2598126702       -3.9782522251       -0.9274072071
 C          3.3004072072       -3.2941814249       -0.3792963979
 H          3.5518890984       -3.4258919392        0.6696073042
 H          2.7624777679       -4.1960570146       -0.6853102169
 C          2.3319355367       -2.1276659677       -0.5444391988
 H          2.1329756684       -1.9742688416       -1.6111279325
 H          1.3657075158       -2.4050998744       -0.1079338691
 H          6.4410584706       -0.5140024995       -0.0665625832
 H          6.5932167290       -2.2050441270        0.4210284680
 H          5.3635567842       -0.6380519038        2.0153318595
 H          4.5369717983       -2.1455673953        1.6440927936
 O          3.8236728074        0.8935211640        1.2441133550
 C          2.8892143160        1.8737664407        0.9813327771
 O          3.1403522939        2.9831610606        1.4951243938
 H         -1.5699569301        1.9353213683       -1.4032195159
 C         -1.6429294051        1.8225921454       -0.3334535799
 C         -0.5675528431        2.1529967728        0.4736366374
 C         -0.6905280850        1.9832597512        1.8505216552
 C         -1.8601922328        1.4970295535        2.4017278537
 C         -2.9293638628        1.1563049508        1.5907988305
 C         -2.8128323117        1.3140164622        0.2170634745
 N         -3.8854178970        0.9544040384       -0.6184401118
 S         -4.6221540057       -0.5264054496       -0.3632511818
 O         -5.2709064176       -0.8412804235       -1.6165858951
 O         -5.4872179168       -0.4369029773        0.7872308920
 C         -3.3031299061       -1.6828352773       -0.0418861735
 C         -2.4785325464       -2.0387206312       -1.0901012125
 C         -1.4422706254       -2.9266824055       -0.8570167163
 C         -1.2456070005       -3.4360260614        0.4172465471
 C         -2.0791486243       -3.0654885951        1.4608244628
 C         -3.1199317390       -2.1802254506        1.2320179569
 H         -3.7962399905       -1.8754894509        2.0138251394
 H         -1.9212955736       -3.4632665160        2.4506020401
 H         -0.4388206508       -4.1297218075        0.5981825841
 H         -0.7888347054       -3.2097974467       -1.6662365536
 H         -2.6616592233       -1.6297048784       -2.0704238369
 H         -3.6901930893        1.0857015026       -1.6004559521
 H         -3.8484933410        0.7715835095        2.0014688890
 H         -1.9412046759        1.3761372411        3.4713902055
 H          0.1524338889        2.2317403392        2.4814551958
 C          0.7566388698        2.6196597709       -0.0783014117
 H          1.0795247210        3.5000310189        0.4941374940
 C          0.7281445105        2.9772634546       -1.5489885807
 C          0.1474467375        4.2875131885       -1.9865509543
 C          1.6280354975        4.0645304474       -2.0505678817
 H          2.0909351194        3.9450856257       -3.0187629542
 H          2.2552684205        4.5649041595       -1.3271800212
 H         -0.4052975080        4.3259870573       -2.9131211490
 H         -0.2335758574        4.9448237411       -1.2196950070
 H          0.5888439932        2.1154295514       -2.1910566808
 O          0.6217728850       -0.1014959981       -1.0279718571
