  62
        -98.94722123
 C          0.9969076677        1.5149625390       -0.8804803821
 C          2.3190522587        1.4492723596       -0.3691993446
 C          3.0686137985        0.2217686996       -0.6484050354
 C          2.4931745873       -0.7576296108       -1.3678941339
 C          3.1046620970       -2.0907411209       -1.7019142045
 C          2.9447157893       -3.1246035904       -0.5782423638
 C          3.8591690216       -2.9134288797        0.6292532344
 H          3.8268502029       -3.8318910494        1.2189969249
 H          4.8872445009       -2.7778689996        0.2902968924
 C          3.4492583630       -1.7397881994        1.5302751047
 H          3.4948467550       -2.0539003489        2.5762798647
 H          2.4079435726       -1.4728458397        1.3298180365
 C          4.3283227625       -0.4955543092        1.3959362525
 H          5.3377787132       -0.7222016789        1.7480428807
 H          3.9128288735        0.2842311609        2.0395415129
 C          4.4239587297        0.0676320202       -0.0275953479
 H          4.8790154696        1.0599017503        0.0282538408
 H          5.0542304686       -0.5729307400       -0.6442683588
 H          1.9048591600       -3.1187239705       -0.2396100418
 H          3.1557086487       -4.1093733405       -1.0025661437
 H          2.5882296454       -2.4599794013       -2.5906702434
 H          4.1617120465       -1.9674696207       -1.9394393366
 O          1.2508516663       -0.6348556513       -1.8963904217
 C          0.4541739166        0.4717590986       -1.6312964806
 O         -0.6823053844        0.3880911781       -2.1380022385
 H         -1.3033366102        0.5229394790        0.1088227026
 C         -1.1967068687        1.1588955394        0.9721062822
 C         -0.5082821792        2.3581762695        0.8641672904
 C         -0.4092400372        3.1714436000        1.9862012898
 C         -0.9631062649        2.7743168004        3.1912004810
 C         -1.5871151144        1.5452350003        3.3104295827
 C         -1.6931349863        0.7275797598        2.1911372133
 N         -2.2820697959       -0.5438910903        2.2558311649
 S         -1.6086525574       -1.7829655406        1.3431119042
 O         -1.9975828358       -2.9922044003        2.0439785755
 O         -0.1867060877       -1.6056027603        1.1592994915
 C         -2.4765101803       -1.7436749014       -0.2084663142
 C         -1.8525920023       -2.2574401118       -1.3262254051
 C         -2.5434076545       -2.2854637824       -2.5266555638
 C         -3.8395980947       -1.8009369927       -2.5872257916
 C         -4.4533803227       -1.2895692624       -1.4542058506
 C         -3.7697505905       -1.2628144017       -0.2498480419
 H         -4.2133082989       -0.8656088614        0.6481775587
 H         -5.4603586629       -0.9074061026       -1.5064698589
 H         -4.3717305965       -1.8165690233       -3.5254921506
 H         -2.0604460461       -2.6725887427       -3.4094835045
 H         -0.8343038320       -2.6045686415       -1.2449213869
 H         -2.5362283841       -0.8564625900        3.1816946656
 H         -1.9781560725        1.2150339406        4.2607256736
 H         -0.8803519034        3.4147207708        4.0562364406
 H          0.1273737925        4.1060460701        1.9183190584
 C          0.1694033983        2.7119984691       -0.4404248711
 H          0.8918846185        3.5140018293       -0.2350359428
 C         -0.8324944837        3.2140727984       -1.4585551794
 C         -1.2950609239        4.6374011383       -1.3818786491
 C         -0.3930135559        4.2011072480       -2.4962928907
 H         -0.8006401877        4.1138658775       -3.4918518299
 H          0.6380848141        4.5228389583       -2.4740836327
 H         -0.8755127525        5.2609946388       -0.6071481902
 H         -2.3268000743        4.8544842480       -1.6109364973
 H         -1.5517873141        2.4640261381       -1.7591297277
 O          2.8471158298        2.3805137000        0.2978944040
