  62
        -98.94467944
 C         -1.7779323046       -1.0881646912       -0.0716514746
 C         -2.9691229271       -1.1137948349        0.7032403595
 C         -4.1602031734       -0.5162748384        0.0927526895
 C         -4.0862219826       -0.0098583182       -1.1510334429
 C         -5.2177641537        0.6056483618       -1.9282343939
 C         -5.4640579678        2.0861352303       -1.6071305550
 C         -6.0988895796        2.3587544357       -0.2428923587
 H         -6.4137241276        3.4042192025       -0.2394426483
 H         -6.9959625750        1.7487109449       -0.1324403488
 C         -5.1623281270        2.1219608731        0.9502990599
 H         -4.1273000541        2.0902163506        0.6014700850
 H         -5.2380110176        2.9615929335        1.6449934847
 C         -5.4561065815        0.8491166991        1.7446311554
 H         -6.4402681707        0.9281177519        2.2116932880
 H         -4.7113869391        0.7634288599        2.5400949675
 C         -5.4121620566       -0.4394323864        0.9128411739
 H         -5.4138898781       -1.2904799519        1.5981802043
 H         -6.2915042001       -0.5038148003        0.2722352578
 H         -4.5153676681        2.6230547180       -1.6811247613
 H         -6.1294652777        2.4803417265       -2.3787307583
 H         -4.9513286139        0.5223304125       -2.9841585686
 H         -6.1323717991        0.0379105200       -1.7547488768
 O         -2.9358045961       -0.0217250796       -1.8710340423
 C         -1.7540748808       -0.5318159454       -1.3504217533
 O         -0.7879195187       -0.4213562383       -2.1336067301
 H          0.6476016834        0.3691961432       -0.6929673094
 C          0.9178074672        0.3282823956        0.3517970933
 C          0.3763396670       -0.6642713953        1.1562060743
 C          0.7386476547       -0.7008936783        2.4973280188
 C          1.6216296469        0.2305948565        3.0167971927
 C          2.1587423522        1.2188058854        2.2111404538
 C          1.7942591627        1.2678182895        0.8723743035
 N          2.3488442750        2.2630886976        0.0342792398
 S          4.0010619924        2.1067274760       -0.2115658968
 O          4.6902557844        2.4975003126        0.9920335426
 O          4.3004613751        2.8772829465       -1.3971474247
 C          4.2350473539        0.3651442053       -0.5143022077
 C          3.9387578188       -0.1258679206       -1.7699984838
 C          4.0416575350       -1.4881905627       -1.9982384777
 C          4.4272820537       -2.3315829085       -0.9677592977
 C          4.7127228598       -1.8239508265        0.2901318792
 C          4.6144488645       -0.4618951892        0.5233902129
 H          4.8300782056       -0.0253312218        1.4846175225
 H          5.0069950532       -2.4843499392        1.0896323530
 H          4.5097929455       -3.3919166649       -1.1493267095
 H          3.8145522705       -1.8858478154       -2.9745638144
 H          3.6448948667        0.5619268942       -2.5471931579
 H          1.8874553345        2.3045078461       -0.8644840429
 H          2.8583813579        1.9451635373        2.5920387388
 H          1.8941669610        0.1875863298        4.0602009830
 H          0.3163945036       -1.4619127404        3.1369144614
 C         -0.5458978288       -1.7050933851        0.5683610704
 H         -0.9331207798       -2.3146543973        1.3957487633
 C          0.2355583236       -2.6073940031       -0.3682176161
 C          1.1002635693       -3.6827756724        0.2141176129
 C         -0.1632431635       -4.0445019571       -0.5062346191
 H         -0.0929971236       -4.5060557511       -1.4796012657
 H         -1.0051092630       -4.3872363545        0.0777959003
 H          2.0436785500       -3.8947044018       -0.2632259116
 H          1.1165691342       -3.7842526598        1.2883669321
 H          0.5897756272       -2.1005529061       -1.2563687147
 O         -3.0325915638       -1.6248569286        1.8526091373
