  62
        -98.93637566
 C          1.3681426915        1.7344493993       -0.0740713506
 C          1.3083050859        0.3684065298        0.2984368918
 C          2.6021719384       -0.2749674426        0.5934250964
 C          3.7305588128        0.4540369476        0.5450201498
 C          5.1229859571       -0.0768366403        0.7367976700
 C          5.5867432092       -0.8114547266       -0.5373596871
 C          5.8056627924       -2.3137107036       -0.3556092926
 H          5.9174252442       -2.7499652984       -1.3506151930
 H          6.7439646380       -2.4727796438        0.1800910253
 C          4.7028559977       -3.0638177193        0.3977029069
 H          4.8634507196       -4.1286396917        0.2158343406
 H          4.8230742656       -2.9104147781        1.4711331920
 C          3.2617625159       -2.7082674994        0.0091417478
 H          2.6757968948       -3.6291400634        0.0088389770
 H          3.2252903784       -2.3080466255       -1.0041714111
 C          2.5622421243       -1.7298983218        0.9708090903
 H          1.4966139480       -1.9752148310        1.0096556903
 H          2.9675739598       -1.8561861388        1.9783866432
 H          6.5198802249       -0.3709663907       -0.8921558680
 H          4.8437755479       -0.6425923940       -1.3197797424
 H          5.1471024195       -0.7452581273        1.5946277247
 H          5.7707791083        0.7760725271        0.9406509311
 O          3.7399337956        1.7780142273        0.2373068965
 C          2.5683929102        2.4486942136       -0.0736110927
 O          2.7239542151        3.6619619131       -0.3186008870
 O          0.2435620847       -0.2927012874        0.3860921993
 C          0.1153983971        2.5163217079       -0.4324374764
 C         -0.9892599133        2.1871121796        0.5397143816
 C         -0.8544613637        2.5877179092        1.8663099198
 C         -1.8261394604        2.2799117345        2.7986674981
 C         -2.9479465912        1.5591948193        2.4290758000
 C         -3.0923788573        1.1574883409        1.1063960362
 C         -2.1224742041        1.4816857942        0.1686147745
 H         -2.2546042140        1.1512879545       -0.8472506535
 N         -4.2267014216        0.4401497300        0.7040291474
 S         -4.1763490871       -0.6771266393       -0.5324588095
 O         -4.0586839505       -0.0063004601       -1.8038593683
 O         -5.3899638390       -1.4474803298       -0.3465479255
 C         -2.7725207111       -1.7397499792       -0.2533605172
 C         -1.8886647572       -1.9793471198       -1.2830073637
 C         -0.8408818123       -2.8607160500       -1.0766184177
 C         -0.6970456717       -3.4837441531        0.1515420880
 C         -1.5906453843       -3.2282902233        1.1792958133
 C         -2.6412612897       -2.3501170432        0.9770852616
 H         -3.3557404632       -2.1389721942        1.7563920498
 H         -1.4675200580       -3.7073976517        2.1376837980
 H          0.1197441528       -4.1708786572        0.3109594965
 H         -0.1362444267       -3.0507403609       -1.8710595761
 H         -2.0323389793       -1.4687514078       -2.2218464960
 H         -4.8400773247        0.1489350206        1.4501390893
 H         -3.7044846188        1.3084650677        3.1569991235
 H         -1.7066307169        2.5952183307        3.8243747769
 H          0.0317123892        3.1354890353        2.1582891402
 H          0.3870589382        3.5758750587       -0.2937332462
 C         -0.3101637364        2.3612219418       -1.8849580853
 C          0.7071450422        2.2045116193       -2.9742513548
 C         -0.1940793114        1.0616281197       -2.6203545883
 H         -0.9841253005        0.7962657117       -3.3085701308
 H          0.2226997474        0.2217466485       -2.0869922489
 H          0.5439604146        2.7225774755       -3.9073448725
 H          1.7459206841        2.1483215860       -2.6823055647
 H         -1.1748750094        2.9749647719       -2.1205385503
