  62
        -98.94105860
 C          0.9990287078        1.4761884498       -0.0384839355
 C          1.8204560768        0.9687173439        0.9952727237
 C          2.6125123779       -0.2265459025        0.6677019418
 C          2.5102772977       -0.7629005798       -0.5619950969
 C          3.2995020139       -1.9361565032       -1.0697779057
 C          4.7356696985       -1.4962406817       -1.4188469664
 C          5.8178161389       -2.1256926913       -0.5417848701
 H          5.9663750059       -3.1628380864       -0.8494046207
 H          6.7487200032       -1.5879867298       -0.7334970177
 C          5.5407825928       -2.1199827691        0.9646646947
 H          4.8549281805       -2.9304523328        1.2164860048
 H          6.4855551187       -2.3462540376        1.4635371024
 C          4.9828175201       -0.8112892814        1.5388741373
 H          5.2548474192        0.0342867731        0.9067063633
 H          5.4471470371       -0.6423961375        2.5126556850
 C          3.4591800315       -0.8077654132        1.7657471915
 H          3.1172398770       -1.8230733393        1.9890395156
 H          3.2379974206       -0.1927436119        2.6435998238
 H          4.9504909247       -1.7469853088       -2.4585729962
 H          4.7892299821       -0.4085580989       -1.3394945530
 H          3.3099108355       -2.7222924140       -0.3177573639
 H          2.7913829941       -2.3122348121       -1.9578462397
 O          1.7117963691       -0.2442567608       -1.5303719149
 C          0.9205780373        0.8731855405       -1.2925122749
 O          0.2149585332        1.2151063275       -2.2581797074
 H         -1.0811170366        0.6623400382        1.4709825793
 C         -1.7735524231        1.2056449347        0.8437166918
 C         -1.3276758568        2.3044289917        0.1172466608
 C         -2.2402398460        2.9976925312       -0.6666507857
 C         -3.5611790156        2.5887889930       -0.7296391771
 C         -3.9969384637        1.4872359211       -0.0175759477
 C         -3.0942317178        0.7919078164        0.7801436925
 N         -3.5176951596       -0.3134216488        1.5409899427
 S         -2.6393175229       -1.7344592953        1.5188129771
 O         -3.5273346757       -2.7112331629        2.1114806431
 O         -1.3678742270       -1.5518596315        2.1705294595
 C         -2.4114413331       -2.0970083236       -0.2099025890
 C         -3.4613108126       -2.6516987449       -0.9161651793
 C         -3.3100298976       -2.8719968634       -2.2751352739
 C         -2.1224102056       -2.5259494472       -2.9028274630
 C         -1.0775122319       -1.9727494356       -2.1795105717
 C         -1.2224755149       -1.7558851119       -0.8188101144
 H         -0.4327168800       -1.3268381880       -0.2215242453
 H         -0.1572218337       -1.6863688831       -2.6635027132
 H         -2.0067260074       -2.6878882105       -3.9628608876
 H         -4.1171882098       -3.3069226437       -2.8422624423
 H         -4.3637245137       -2.9140560260       -0.3880402435
 H         -4.5041703271       -0.5144410407        1.4561538829
 H         -5.0268428095        1.1685648066       -0.0691668110
 H         -4.2593380858        3.1333383767       -1.3467469844
 H         -1.9175767106        3.8560628488       -1.2318728679
 C          0.1273579691        2.6870385859        0.2398098728
 H          0.3193815012        2.9478079120        1.2915074589
 C          0.5325539225        3.8552359891       -0.6336830489
 C          0.2819792996        5.2595788526       -0.1741376003
 C          1.6787205335        4.7179104501       -0.2011344649
 H          2.3614652098        5.0838081050       -0.9532669493
 H          2.1542513865        4.4766568616        0.7386054995
 H          0.0078213727        6.0021463274       -0.9080822601
 H         -0.1903923301        5.3932578621        0.7873044730
 H          0.4444026556        3.6365472472       -1.6916835846
 O          1.8861566877        1.4911849806        2.1417303330
