  62
        -98.93675063
 C         -2.4207500991       -1.1486765299        0.1645872986
 C         -2.4849737093        0.0395341500       -0.6047459515
 C         -3.8388780494        0.5156339197       -0.9343390516
 C         -4.9096193193       -0.1782636204       -0.5101846016
 C         -6.3382884493        0.2271975193       -0.7259459717
 C         -6.8518179496        1.0835856193        0.4402506482
 C         -5.9172409698        2.2315994095        0.8221091381
 H         -6.3946904200        2.7825587295        1.6353001480
 H         -4.9865528798        1.8180191597        1.2175234082
 C         -5.5931726299        3.1957484794       -0.3275907919
 H         -6.3276280499        3.0806809592       -1.1255264920
 H         -5.6732304902        4.2202220395        0.0418653580
 C         -4.1863914999        3.0410427697       -0.9087070319
 H         -3.4497877799        3.0624578099       -0.1013400918
 H         -3.9887290500        3.9008515996       -1.5543532419
 C         -3.9450268596        1.7773067796       -1.7439743117
 H         -4.7220827495        1.6838579794       -2.5053502618
 H         -2.9806156596        1.8919667398       -2.2476385717
 H         -7.8308350296        1.4833193391        0.1700540581
 H         -6.9765975995        0.4392086093        1.3135389882
 H         -6.4166817194        0.7804312792       -1.6596809918
 H         -6.9456768392       -0.6766407209       -0.7967332817
 O         -4.8084214491       -1.3160106604        0.2240278585
 C         -3.5711812090       -1.8130622001        0.5979318886
 O         -3.6261022289       -2.8352587900        1.3105647987
 H          1.3745968109       -0.9112762292       -0.3522696512
 C          1.0442076607       -0.3680853492        0.5172605287
 C         -0.1775820393       -0.6472116194        1.1063405587
 C         -0.5740437195        0.1064761606        2.2088227186
 C          0.2302885503        1.1142437808        2.7030063886
 C          1.4582117103        1.3788226610        2.1220270286
 C          1.8606955305        0.6358709910        1.0194115687
 N          3.0885094905        0.8943621212        0.3893351587
 S          3.9575354208       -0.4119337987       -0.2303901411
 O          3.5045646709       -0.6932196189       -1.5692391411
 O          3.9183342109       -1.5176927286        0.7009414690
 C          5.5964430106        0.2902324316       -0.2872136811
 C          5.9369774705        1.0961605616       -1.3573297711
 C          7.1973319904        1.6714676718       -1.3879626811
 C          8.0908300904        1.4338806421       -0.3538776610
 C          7.7356134805        0.6214248921        0.7123326890
 C          6.4762132006        0.0436824819        0.7498186490
 H          6.1591534007       -0.6013639681        1.5534460590
 H          8.4335135005        0.4359235923        1.5128202791
 H          9.0711730503        1.8827290723       -0.3806927710
 H          7.4779171603        2.3015396218       -2.2165314711
 H          5.2125908305        1.2448610614       -2.1412332112
 H          3.6783083903        1.5254143013        0.9140809587
 H          2.0913860601        2.1622419912        2.5102843686
 H         -0.0951898799        1.6932666609        3.5544304085
 H         -1.5307997695       -0.1068347695        2.6676617886
 C         -1.0943772590       -1.7387573796        0.6116358987
 H         -1.3434785690       -2.3802401396        1.4743456788
 C         -0.4350413688       -2.6418482596       -0.4197789411
 C         -1.2526065086       -3.4495844098       -1.3815508611
 C         -0.4171175588       -2.3108376697       -1.8803133912
 H          0.4801518813       -2.5309111196       -2.4411336611
 H         -0.9111900289       -1.4044052898       -2.1926587013
 H         -2.3253148886       -3.3239604400       -1.3536216212
 H         -0.9360190084       -4.4580440298       -1.6013233510
 H          0.4544197313       -3.1240001894       -0.0223916310
 O         -1.4782494894        0.6816615402       -1.0001810615
