  62
        -98.94272729
 C         -1.3815692024       -1.5971107911        0.2498392549
 C         -1.6719648398       -0.5623597069        1.1683076769
 C         -2.7802653489        0.3421237697        0.8220918721
 C         -3.4368129951        0.1599915833       -0.3366022450
 C         -4.6303229357        0.9041221200       -0.8846963441
 C         -4.7026728824        2.4189476045       -0.6696811060
 C         -3.3600856396        3.1542049196       -0.7910629813
 H         -2.5948661840        2.4894399888       -1.1980246859
 H         -3.4699374509        3.9854955617       -1.4903720160
 C         -2.8633895189        3.7193879306        0.5407329544
 H         -2.1303091342        4.5028999193        0.3335881370
 H         -3.7010368644        4.1785786302        1.0712298948
 C         -2.1833113565        2.6974255920        1.4481223837
 H         -1.8996048264        3.2010583522        2.3757845657
 H         -1.2608484126        2.3608983735        0.9658405312
 C         -3.0305191072        1.4598622389        1.7936267159
 H         -2.7045639513        1.0872873168        2.7687736893
 H         -4.0862775293        1.7124189609        1.8569881752
 H         -5.1397782807        2.6309336484        0.3049632880
 H         -5.3980889605        2.8064000266       -1.4166990268
 H         -5.5315160136        0.4426409204       -0.4685041512
 H         -4.6278665745        0.6901127825       -1.9566871533
 O         -3.1050386455       -0.8354726252       -1.2086319788
 C         -2.0604230882       -1.7121310915       -0.9614594950
 O         -1.8500225177       -2.5295576278       -1.8782771238
 O         -1.0313159220       -0.4028495705        2.2433160063
 C         -0.2166284375       -2.5240076229        0.5394407478
 C          0.9282227420       -2.2507156094       -0.4083286988
 C          1.8102579961       -3.2327711449       -0.8431457929
 C          2.8566170447       -2.9057862886       -1.6887894519
 C          3.0588666000       -1.6020889575       -2.1051859583
 C          2.1832930506       -0.6119460238       -1.6734061313
 C          1.1347706305       -0.9463635877       -0.8329096978
 H          0.4479733826       -0.1739761512       -0.5275717639
 N          2.3301592674        0.7203472410       -2.0816041284
 S          1.8744916814        1.9874198465       -1.0922856986
 O          0.4413650723        2.0345991948       -0.9521378491
 O          2.4870420425        3.1454992028       -1.7081760554
 C          2.6733732101        1.6613659465        0.4688914127
 C          1.9697556054        1.1773584036        1.5520061649
 C          2.6561012199        0.9006534113        2.7250306288
 C          4.0236100478        1.1103434469        2.7967541547
 C          4.7165115728        1.6037067618        1.7009261707
 C          4.0376396579        1.8791812629        0.5263820301
 H          4.5352282796        2.2779569980       -0.3427266774
 H          5.7797365300        1.7720921010        1.7591502389
 H          4.5503459963        0.8913523241        3.7121463346
 H          2.1065549391        0.5183080904        3.5704853871
 H          0.9053503390        1.0152706998        1.4857579743
 H          3.1686689513        0.9252536035       -2.6033388189
 H          3.8745515912       -1.3527160081       -2.7661068958
 H          3.5296223216       -3.6792101845       -2.0263766376
 H          1.6733491686       -4.2539647150       -0.5269833117
 H          0.1230915328       -2.2529341885        1.5515906136
 C         -0.6549762603       -3.9735008920        0.5467423819
 C         -0.0035492770       -4.9588763204        1.4695026813
 C         -1.4033190339       -4.4960995827        1.7355756148
 H         -2.2186544394       -5.1839361825        1.5695509436
 H         -1.5702316694       -3.8125711742        2.5554071977
 H          0.1414894233       -5.9708499994        1.1224337853
 H          0.7788555727       -4.5965355878        2.1191005728
 H         -0.9705274752       -4.3166653051       -0.4317460172
