  62
        -98.93915852
 C         -2.3594884507       -0.0261691744        0.2075844309
 C         -1.8157196010        0.7913722312        1.2306672780
 C         -1.4703197571        2.1770702081        0.8811408730
 C         -1.6476150227        2.5949597531       -0.3857149001
 C         -1.3958575913        3.9394654299       -1.0350794860
 C         -0.5415780899        4.9945523967       -0.3372556986
 C          0.9356777938        4.6295636590       -0.1971347777
 H          1.4274676683        5.4186753964        0.3767045424
 H          1.3860047916        4.6096984958       -1.1930769286
 C          1.2245411822        3.2827068089        0.4622749589
 H          2.3111883567        3.1640707636        0.5164667106
 H          0.8549253398        2.4737157272       -0.1728978995
 C          0.6670292421        3.1194587771        1.8753368673
 H          0.9968769896        3.9547232874        2.4963954926
 H          1.0946891284        2.2035288326        2.2895883530
 C         -0.8644273525        3.0054832625        1.9777486750
 H         -1.3333179642        3.9862998210        2.0134486079
 H         -1.1028701642        2.4924417653        2.9140960688
 H         -0.9648627276        5.2434877336        0.6314273951
 H         -0.6007618215        5.8971394282       -0.9518699287
 H         -2.3850530924        4.3677237574       -1.2335840883
 H         -0.9547409749        3.7119331966       -2.0112354409
 O         -2.1808736379        1.7789531011       -1.3369107289
 C         -2.4936391183        0.4521196189       -1.0945172621
 O         -2.8840300661       -0.1555329937       -2.1139152751
 O         -1.6257856425        0.3706695942        2.4040211812
 C         -2.5980679480       -1.4814508354        0.5850516234
 C         -1.2694499101       -2.1899348083        0.4607675028
 C         -0.6953842681       -2.8765011465        1.5230286232
 C          0.5915993002       -3.3789288716        1.4268828872
 C          1.3450742961       -3.1639836254        0.2861749329
 C          0.7711848636       -2.4912706555       -0.7839252183
 C         -0.5378314823       -2.0496123013       -0.7105765488
 H         -0.9664485337       -1.5196605948       -1.5493784745
 N          1.5937313817       -2.1357616964       -1.8964748246
 S          2.0713204073       -0.5188472312       -1.7219825404
 O          0.9332128612        0.3680895161       -1.6073290106
 O          2.9608797583       -0.2471416018       -2.8308110946
 C          2.9741313643       -0.5588846594       -0.1925253379
 C          2.3053585652       -0.2851268787        0.9843020109
 C          3.0002119777       -0.3637053224        2.1805244772
 C          4.3420273581       -0.7136638278        2.1784733954
 C          4.9986099911       -0.9851830171        0.9873865772
 C          4.3091680182       -0.9112742026       -0.2124401428
 H          4.7743557005       -1.1112550802       -1.1635790683
 H          6.0418673552       -1.2567714344        0.9904636702
 H          4.8772710646       -0.7747024967        3.1128453935
 H          2.4846418469       -0.1575870277        3.1051318076
 H          1.2593951121       -0.0193382170        0.9475793151
 H          1.1033469669       -2.2133625408       -2.7788145199
 H          2.3688910721       -3.4934209248        0.2177979456
 H          1.0253883643       -3.9067355725        2.2617276723
 H         -1.2518539204       -2.9838288099        2.4419733545
 H         -2.8744788260       -1.4750733487        1.6484555036
 C         -3.6864728907       -2.1882661496       -0.1918822740
 C         -4.3343656315       -3.3988759907        0.4090770562
 C         -5.1018222587       -2.1169375825        0.2939241636
 H         -5.8911270886       -2.0466679184       -0.4390034532
 H         -5.2929279025       -1.5531690417        1.1952527224
 H         -4.5983460511       -4.2163235435       -0.2438466599
 H         -4.0090629358       -3.7066304684        1.3910638657
 H         -3.5304857360       -2.1784946914       -1.2624785513
