  62
        -98.94440732
 C         -1.9416619255       -1.3535108083        0.0726825801
 C         -2.2176547147       -0.3964604050       -0.9336611433
 C         -3.5896853459        0.1337364301       -0.9599389485
 C         -4.4910969326       -0.3026287400       -0.0625974883
 C         -5.8999930755        0.1992741781        0.0576089980
 C         -5.9892471378        1.3735626379        1.0423832122
 C         -4.9492447492        2.4669850150        0.7972000773
 H         -5.1282032476        3.2562481336        1.5306773728
 H         -3.9533282241        2.0644579344        0.9973620507
 C         -4.9788927880        3.0664759164       -0.6157163566
 H         -4.9061076596        4.1532501590       -0.5361335536
 H         -5.9324285722        2.8402323050       -1.0942806077
 C         -3.8355155963        2.6094803982       -1.5236093850
 H         -2.8816059255        2.7505206739       -1.0084285126
 H         -3.8270890194        3.2521267879       -2.4081990204
 C         -3.9117744671        1.1574399336       -2.0124686533
 H         -4.8948463805        0.9672581813       -2.4474702320
 H         -3.1592718295        1.0312023192       -2.7962367861
 H         -6.9912927031        1.8016923594        0.9791787914
 H         -5.8474340758        0.9883688305        2.0548051397
 H         -6.2567214539        0.5064586488       -0.9235407136
 H         -6.5256243354       -0.6170911801        0.4224207673
 O         -4.1972148824       -1.2316140351        0.8809893827
 C         -2.9266767076       -1.7692101998        0.9764745736
 O         -2.7967593880       -2.6067582270        1.8911834040
 O         -1.3797829537        0.0155691964       -1.7816311225
 C         -0.5819131257       -2.0112491588        0.2569062789
 C          0.3869118795       -1.0977027123        0.9687159910
 C          0.9231146689       -1.4456879061        2.2026625893
 C          1.8362947047       -0.6189042292        2.8345910861
 C          2.2334051771        0.5696840790        2.2489040235
 C          1.6968858426        0.9281786754        1.0192366980
 C          0.7876813923        0.0956738439        0.3847648417
 H          0.3729377122        0.3816532928       -0.5704462414
 N          2.1111683646        2.1291616411        0.4036248093
 S          3.7556842286        2.2176564514        0.0834225143
 O          4.4577338828        2.5495155258        1.2978319574
 O          3.8952388235        3.1574460500       -1.0061788908
 C          4.1861353251        0.5673812180       -0.4386919689
 C          4.8792588260       -0.2650716917        0.4159123291
 C          5.1281991409       -1.5700976540        0.0224368537
 C          4.6770056367       -2.0184259214       -1.2089382849
 C          3.9829183355       -1.1688835292       -2.0567552276
 C          3.7298253896        0.1361640678       -1.6683862619
 H          3.1946948898        0.8244051980       -2.3034175339
 H          3.6327361572       -1.5180572487       -3.0150779564
 H          4.8676622330       -3.0363808134       -1.5105872042
 H          5.6674344024       -2.2337696274        0.6788042211
 H          5.2107468282        0.1241013260        1.3644617356
 H          1.5878312085        2.3328388083       -0.4367146440
 H          2.9497010251        1.2235312309        2.7198613097
 H          2.2436861725       -0.9031762341        3.7927426758
 H          0.6112208226       -2.3678579926        2.6710077907
 H         -0.7622109529       -2.8779059058        0.9062644370
 C          0.0209488272       -2.5058987581       -1.0450593890
 C          1.0807227904       -3.5629727523       -0.9962721297
 C         -0.2860614508       -3.8944372693       -1.5145545349
 H         -0.4130607637       -4.0635794383       -2.5733148661
 H         -0.9350744689       -4.4985553885       -0.8969742721
 H          1.8971662600       -3.5035792762       -1.6985694360
 H          1.3612147937       -3.9446759076       -0.0265145651
 H          0.1107224975       -1.7348756197       -1.7982505028
