  62
        -98.93339842
 C         -1.6740378098       -0.2387409591        0.4871687761
 C         -2.8595259288       -0.3847089248        1.2505993618
 C         -4.1097580405       -0.5553651354        0.4954990451
 C         -4.0668916409       -0.5404266927       -0.8489318525
 C         -5.2583033754       -0.6200724946       -1.7606263071
 C         -5.9775771209        0.7431789469       -1.8073374548
 C         -7.3870901176        0.7330486457       -1.2152806237
 H         -7.7038650435        1.7726433884       -1.1071729215
 H         -8.0661377811        0.2539792050       -1.9237463764
 C         -7.5399278658        0.0226284168        0.1331397986
 H         -8.5069959327        0.3223573998        0.5426100994
 H         -7.5898612663       -1.0559265479       -0.0235203821
 C         -6.4521273280        0.3173808058        1.1740560386
 H         -5.9795404918        1.2796319304        0.9752610092
 H         -6.9306426572        0.3953301555        2.1525010623
 C         -5.3668950792       -0.7690566456        1.2925131249
 H         -5.0327999612       -0.8152467026        2.3333647047
 H         -5.7970623788       -1.7428802554        1.0421580867
 H         -5.3633227050        1.4728288712       -1.2753611107
 H         -6.0438356113        1.0846051936       -2.8414743788
 H         -4.8917286018       -0.8899186940       -2.7511626153
 H         -5.9347726643       -1.3984674830       -1.4146189121
 O         -2.9158636075       -0.3660654015       -1.5466235163
 C         -1.6922520222       -0.2043145860       -0.9078347488
 O         -0.7360893081       -0.0427652937       -1.6870655806
 O         -2.8710188619       -0.3687036090        2.5109735078
 C         -0.3703807190       -0.0521319542        1.2420199099
 C          0.4116335034        1.1005703951        0.6648167952
 C         -0.1975805574        2.3513503642        0.5893952231
 C          0.4726620583        3.4342841958        0.0574092643
 C          1.7776799969        3.3019772061       -0.3855700363
 C          2.3988821553        2.0636197889       -0.3035765180
 C          1.7137285919        0.9714907066        0.2113797813
 H          2.2079101051        0.0154260640        0.2378206464
 N          3.7207457622        1.8850898513       -0.7414107732
 S          4.7741023730        1.0115497549        0.2226324671
 O          4.4584690852        1.1648997998        1.6242118032
 O          6.0928828060        1.4517099161       -0.1816371502
 C          4.5651073324       -0.6860701535       -0.2693876499
 C          4.5344214873       -0.9906652518       -1.6155957488
 C          4.4168875595       -2.3172108229       -1.9980728816
 C          4.3404736099       -3.3117348035       -1.0347505612
 C          4.3757454207       -2.9895047708        0.3134613028
 C          4.4898351653       -1.6640304352        0.7025328952
 H          4.5116942644       -1.3673842724        1.7392111777
 H          4.3133051442       -3.7637125178        1.0618178439
 H          4.2487401604       -4.3435380473       -1.3356383086
 H          4.3846295166       -2.5718221596       -3.0451488453
 H          4.5969231011       -0.1929107947       -2.3365050225
 H          4.1600377014        2.7150741816       -1.1125104898
 H          2.3068320587        4.1489725781       -0.7957994854
 H         -0.0187456421        4.3938285929       -0.0052844374
 H         -1.2141868228        2.4583717164        0.9438636631
 H         -0.6840368343        0.2347545265        2.2604812236
 C          0.4540911565       -1.3226528546        1.3868342089
 C         -0.1948774233       -2.6734399929        1.3758937751
 C          0.6878859309       -2.2577630676        0.2394623629
 H          1.6595617031       -2.7202873654        0.1467770867
 H          0.2319619363       -2.0082898839       -0.7053248777
 H          0.1682128828       -3.4206032370        2.0653404817
 H         -1.2613064683       -2.7152695917        1.2081237016
 H          1.2770790099       -1.1913462938        2.0838297374
