  62
        -98.94967532
 C          1.4989387297        1.0635872911        0.0420518261
 C          2.5188595062        0.6398711673        0.9243122968
 C          3.0550124783       -0.7059310730        0.6870614676
 C          2.5352496254       -1.4560328467       -0.3022683207
 C          3.0131132252       -2.8286230526       -0.6768177741
 C          4.1062331327       -2.7659928726       -1.7529514168
 C          5.2285998510       -1.7780420954       -1.4348488296
 H          5.9563940759       -1.8401389326       -2.2466329435
 H          4.8223898076       -0.7641086169       -1.4422645922
 C          5.9343186537       -2.0298855499       -0.0952015216
 H          7.0128190890       -1.9499511673       -0.2464685985
 H          5.7290730730       -3.0449363746        0.2467235316
 C          5.5656448379       -1.0398069174        1.0111252090
 H          5.6802530539       -0.0178188269        0.6413132173
 H          6.2723039229       -1.1713349044        1.8348484020
 C          4.1539409137       -1.1844689842        1.5940757805
 H          3.9814927110       -2.2206637292        1.8936722830
 H          4.0971162804       -0.5568178810        2.4886488477
 H          3.6447006549       -2.4686640135       -2.6973165810
 H          4.5236611091       -3.7666950533       -1.8784569080
 H          2.1612581659       -3.3920245630       -1.0620664163
 H          3.3903067516       -3.3297973149        0.2127111697
 O          1.5388053519       -1.0250967738       -1.1147884542
 C          0.9907622336        0.2363289823       -0.9586094643
 O          0.0781649308        0.5056591251       -1.7641698731
 O          2.9565453231        1.3536841093        1.8689683287
 C          0.8861323406        2.4393945606        0.2236066405
 C         -0.6070076545        2.3324603015        0.4136294107
 C         -1.5071037436        3.2458565217       -0.1222481629
 C         -2.8685786381        3.0912184348        0.0745671519
 C         -3.3626214880        2.0140380807        0.7871653186
 C         -2.4698252831        1.1004512165        1.3342362741
 C         -1.1067962382        1.2799885720        1.1699227073
 H         -0.4299942131        0.5586124840        1.6047462924
 N         -2.9162644546       -0.0365835360        2.0438820812
 S         -2.6159025806       -1.5148724369        1.3071447160
 O         -3.2491147164       -2.4967462954        2.1624544188
 O         -1.2022459351       -1.6776116024        1.0879241303
 C         -3.5103686496       -1.4099393615       -0.2330560003
 C         -2.9475058868       -0.7472670718       -1.3052154440
 C         -3.6999224784       -0.5971469827       -2.4610376277
 C         -4.9885745743       -1.1034143701       -2.5245395563
 C         -5.5377219458       -1.7673731743       -1.4375224594
 C         -4.7954094140       -1.9176169988       -0.2780101096
 H         -5.1775624269       -2.4279919610        0.5914941024
 H         -6.5390292441       -2.1637006786       -1.4890478878
 H         -5.5665915296       -0.9802713215       -3.4268427305
 H         -3.2648381224       -0.0801963957       -3.3013082636
 H         -1.9399711879       -0.3650414232       -1.2407190890
 H         -3.8949274393        0.0058069970        2.2965521805
 H         -4.4254006348        1.8766453915        0.9186774379
 H         -3.5542454783        3.8088927106       -0.3489922502
 H         -1.1411349196        4.0784293548       -0.7005911981
 H          1.3259379891        2.8370837764        1.1510993562
 C          1.2777582983        3.3436694926       -0.9282121576
 C          1.4725966376        4.8140150032       -0.7114318475
 C          2.6573263227        3.9282898674       -0.9491539065
 H          3.1752938339        3.9963053347       -1.8940482895
 H          3.3026180740        3.6984884990       -0.1136674549
 H          1.1792825612        5.4942177772       -1.4968196290
 H          1.3218749946        5.1973692467        0.2863963548
 H          0.8597854330        3.0137924741       -1.8729649249
