  62
        -98.94173821
 C         -1.7129512201       -0.4633099006       -0.3028386094
 C         -2.8251434000       -1.2898103403        0.0038891814
 C         -4.1467437401       -0.7516185008       -0.3343782891
 C         -4.2450371001        0.4659842086       -0.8971996104
 C         -5.5180279302        1.1415609481       -1.3299880512
 C         -6.2512715502        1.8773974693       -0.2001467919
 C         -6.9424029702        0.9748723603        0.8227798390
 H         -7.5934237702        1.6125186809        1.4241706083
 H         -7.5792910201        0.2591260897        0.3020225098
 C         -5.9814917401        0.2278439614        1.7583006198
 H         -6.3370941201        0.3112564124        2.7877616697
 H         -4.9970662402        0.7002516514        1.7208461993
 C         -5.8280148601       -1.2618175990        1.4510805914
 H         -6.7805697300       -1.7701438888        1.6160712019
 H         -5.0971490100       -1.6819513582        2.1466258219
 C         -5.3525693200       -1.5665381505        0.0245416317
 H         -5.0686042500       -2.6206044505       -0.0242285771
 H         -6.1582981800       -1.3876537313       -0.6871650485
 H         -7.0097169003        2.5122833987       -0.6640688526
 H         -5.5394202003        2.5300093298        0.3107540974
 H         -6.1863793001        0.4078091776       -1.7817193804
 H         -5.2379384002        1.8725211773       -2.0916961719
 O         -3.1579331602        1.2373061984       -1.1594736113
 C         -1.8695487902        0.8112552088       -0.8498212808
 O         -0.9909727502        1.6530932086       -1.1119530117
 O         -2.7165114500       -2.4254580798        0.5370925527
 C         -0.3342030601       -0.9984761002        0.0401945711
 C          0.4815651399        0.0466036006        0.7560996800
 C          0.0888055298        0.4478168320        2.0308158796
 C          0.8010264398        1.4095433228        2.7198146886
 C          1.9345614898        1.9756909622        2.1624984580
 C          2.3333763698        1.5841326209        0.8907296884
 C          1.6080607898        0.6257693401        0.1952029794
 H          1.9100477399        0.3770926090       -0.8075420603
 N          3.4754717898        2.1385839803        0.2988886978
 S          4.4355996198        1.2224549693       -0.7095057212
 O          5.7376587398        1.8513846894       -0.6312483419
 O          3.8647088798        1.1346485179       -2.0296450511
 C          4.4995944899       -0.3983952499        0.0363642005
 C          4.9069429299       -0.5042080485        1.3515776106
 C          4.9493077600       -1.7567148778        1.9418576120
 C          4.5884120600       -2.8779545686        1.2104516132
 C          4.1913298900       -2.7569085601       -0.1119546270
 C          4.1449019000       -1.5056859307       -0.7062661983
 H          3.8365716900       -1.3651502018       -1.7301618384
 H          3.9139416301       -3.6303288907       -0.6807602460
 H          4.6178655501       -3.8522602182        1.6721103442
 H          5.2611495300       -1.8550192267        2.9691032621
 H          5.1892712199        0.3845873921        1.8916362897
 H          4.0107323897        2.7615118110        0.8843767271
 H          2.4953796797        2.7256791228        2.6991289172
 H          0.4783741698        1.7171472638        3.7030855983
 H         -0.7940407201        0.0021006024        2.4686708601
 H         -0.5327558500       -1.8177852094        0.7515021920
 C          0.4058546000       -1.6194037414       -1.1346980782
 C         -0.3322497800       -2.2957966026       -2.2495929475
 C          0.3977904099       -1.0126747328       -2.5043546188
 H          1.3095203100       -1.0379116934       -3.0843249388
 H         -0.1756781601       -0.1104492830       -2.6505467698
 H          0.0740801701       -3.2099334530       -2.6552271565
 H         -1.4119534500       -2.2704908626       -2.2238945075
 H          1.3336098500       -2.0867327710       -0.8181034177
