  62
        -98.94389897
 C          0.7266897911       -2.0733143162        0.5034626713
 C         -0.0123942471       -2.2540324585       -0.6940980259
 C         -1.4757971810       -2.3295479315       -0.5315533494
 C         -2.0301891001       -2.2449650767        0.6900537980
 C         -3.4931055456       -2.3755730979        1.0195365910
 C         -4.3126158165       -1.0910465583        0.8387430121
 C         -4.5778931010       -0.6902049126       -0.6125984949
 H         -4.9818709221       -1.5424241917       -1.1600142992
 H         -5.3475326500        0.0838267171       -0.5987944345
 C         -3.3443940943       -0.1428996077       -1.3423195218
 H         -2.5885566086        0.1509991827       -0.6115872990
 H         -3.6087701315        0.7633884025       -1.8929673706
 C         -2.7038397884       -1.1007873874       -2.3466441926
 H         -3.3855762091       -1.2649909422       -3.1849622430
 H         -1.8032105943       -0.6157269451       -2.7331536034
 C         -2.3083434603       -2.4663532238       -1.7700642368
 H         -3.2007406458       -3.0589914400       -1.5647943175
 H         -1.7051723921       -2.9880136492       -2.5178359980
 H         -3.8043304877       -0.2712347988        1.3512915204
 H         -5.2746690778       -1.2493892765        1.3312886608
 H         -3.9295370250       -3.1715198277        0.4147658004
 H         -3.5447371657       -2.6708875167        2.0698575680
 O         -1.2854920717       -2.0695378086        1.8146972192
 C          0.0939073484       -1.9603304493        1.7449479978
 O          0.6447753250       -1.7772968457        2.8487483118
 H          1.3652985172        0.0374115960       -1.0833563527
 C          2.0438680030        0.4071848035       -0.3293180097
 C          2.6152297149       -0.4731489563        0.5796513602
 C          3.5057666750        0.0237872040        1.5237409569
 C          3.8107626936        1.3727098438        1.5600792780
 C          3.2144008681        2.2516351517        0.6743397111
 C          2.3197141468        1.7661828815       -0.2733805844
 N          1.6936257520        2.6407795399       -1.1774625299
 S          0.0499712376        2.5219266850       -1.4686254259
 O         -0.2433661428        1.3022185574       -2.1700551020
 O         -0.2761678619        3.7519839528       -2.1570509806
 C         -0.7112830888        2.5313867302        0.1449101426
 C         -1.1608471141        3.7341657039        0.6545516653
 C         -1.7169462614        3.7617230275        1.9230639623
 C         -1.8028796118        2.5932294476        2.6652713592
 C         -1.3423868331        1.3943138559        2.1436161312
 C         -0.7947268483        1.3598567320        0.8705441709
 H         -0.4330635767        0.4368045917        0.4444031857
 H         -1.3941705273        0.4813483071        2.7176671905
 H         -2.2307457008        2.6124177183        3.6551762224
 H         -2.0784786787        4.6917882959        2.3309754550
 H         -1.0782440082        4.6167221935        0.0410962735
 H          1.9579349478        3.6092333350       -1.0656175401
 H          3.4355189166        3.3073370609        0.7138404374
 H          4.5055602861        1.7467384155        2.2962819849
 H          3.9452108654       -0.6524073330        2.2419374256
 C          2.2411438195       -1.9344236547        0.5584720757
 H          2.5371811126       -2.3579222394        1.5324417001
 C          2.9766882082       -2.7231220478       -0.5136586928
 C          3.6326490826       -2.0897263445       -1.6995665043
 C          4.4732645302       -2.6526893470       -0.5953550180
 H          5.0245041738       -3.5630122511       -0.7757903849
 H          4.9747879005       -1.9515641600        0.0546504095
 H          3.5740982527       -1.0173912734       -1.8050544619
 H          3.5784551843       -2.6174057210       -2.6395878586
 H          2.5258269118       -3.6957292880       -0.6800128985
 O          0.4944397224       -2.3735019490       -1.8373462291
