  62
        -98.93916599
 C         -2.6292001276       -1.2499702931        0.4072654268
 C         -3.0027154275       -0.1283595817        1.1914138900
 C         -4.1870583120        0.6168761590        0.7489761097
 C         -4.8466036475        0.2041963385       -0.3487019673
 C         -6.0427249044        0.8902542911       -0.9410788978
 C         -5.6256741569        1.9258914633       -1.9944613286
 C         -4.5235703452        2.8753055101       -1.5242849901
 H         -3.6029651908        2.3071577901       -1.3703282013
 H         -4.3323334296        3.5801370786       -2.3363788797
 C         -4.8584609489        3.6514227808       -0.2428371882
 H         -4.5731023139        4.6963350000       -0.3817165775
 H         -5.9345577425        3.6300247188       -0.0666896710
 C         -4.1311542022        3.1548211454        1.0082757167
 H         -3.0588689338        3.0846335270        0.8060352772
 H         -4.2656903966        3.8992920429        1.7977611110
 C         -4.6062795637        1.8067953899        1.5652597006
 H         -5.6906343902        1.8238096525        1.6934486591
 H         -4.1455877733        1.6728874017        2.5485038436
 H         -5.2652581991        1.3951274548       -2.8785403487
 H         -6.5074874369        2.5024675537       -2.2797198386
 H         -6.6714899399        0.1352457248       -1.4159146008
 H         -6.6080672649        1.3724267229       -0.1459244810
 O         -4.4632626808       -0.8734993669       -1.0752086182
 C         -3.3394243742       -1.6201543619       -0.7359181951
 O         -3.1104436762       -2.5575076845       -1.5200202556
 O         -2.3744169976        0.2243328419        2.2272606947
 C         -1.4068421837       -2.0210262624        0.8732354936
 C         -0.1600452704       -1.4597714108        0.2388191466
 C         -0.0403924959       -1.3464382605       -1.1432541220
 C          1.1082746754       -0.8188014843       -1.7035920933
 C          2.1539461755       -0.3885094891       -0.9044461713
 C          2.0346452598       -0.4734664066        0.4757334851
 C          0.8834238004       -1.0148227464        1.0360761800
 H          0.7887174976       -1.0698111066        2.1122074356
 N          3.0869315610       -0.0428193035        1.2965952021
 S          3.9035981696        1.3751861075        0.9283438822
 O          4.4820384680        1.8056913408        2.1820674357
 O          3.0497811215        2.3248296476        0.2538000436
 C          5.2086065039        0.8380752359       -0.1582720141
 C          5.3990268421        1.4706582669       -1.3710991884
 C          6.4264386545        1.0416180388       -2.1970876877
 C          7.2415638512       -0.0060935727       -1.7972225644
 C          7.0398392103       -0.6281483605       -0.5740769690
 C          6.0156505591       -0.2031232120        0.2567764076
 H          5.8285841832       -0.6584913266        1.2148289999
 H          7.6760836794       -1.4422488676       -0.2663354073
 H          8.0385143588       -0.3397874119       -2.4428471284
 H          6.5853909817        1.5251070531       -3.1476229521
 H          4.7368194704        2.2771407625       -1.6439838173
 H          2.8918526592       -0.1059461464        2.2851681582
 H          3.0467273609        0.0284299693       -1.3404536364
 H          1.1919340692       -0.7408048916       -2.7770923565
 H         -0.8579686913       -1.6741234813       -1.7679055968
 H         -1.3461597383       -1.8118354336        1.9534926607
 C         -1.5389958848       -3.5290122922        0.7154954503
 C         -0.7294590038       -4.3432950394       -0.2438665855
 C         -0.4498118091       -4.4269364373        1.2246376575
 H         -0.7237299447       -5.3242879201        1.7582788116
 H          0.4507693522       -3.9533904334        1.5864510219
 H         -1.2218922002       -5.1714111123       -0.7300206659
 H         -0.0132764155       -3.8362966455       -0.8703156573
 H         -2.5588265198       -3.8614427730        0.8801660985
