  62
        -98.94066435
 C         -0.7895807892       -1.6169730655       -0.5190281680
 C         -1.9903000740       -1.8192517285        0.2081586504
 C         -3.0892071968       -0.8722798486       -0.0358419281
 C         -2.9133162370        0.1246395068       -0.9227702438
 C         -3.8732131439        1.1856958054       -1.4177963294
 C         -5.1173469963        1.5513706102       -0.6105290193
 C         -4.8448498226        2.1612286227        0.7633937137
 H         -4.3912772386        3.1460285834        0.6269859220
 H         -5.8051956605        2.3076438373        1.2629753018
 C         -3.9305790482        1.3481760922        1.6768253393
 H         -3.8545588670        1.8786554468        2.6297576245
 H         -2.9269717384        1.3033685590        1.2497645820
 C         -4.4022975645       -0.0743380013        1.9745843093
 H         -3.7654905636       -0.4703115457        2.7699887029
 H         -5.4282614690       -0.0536600036        2.3471256776
 C         -4.3269954234       -1.0587784472        0.7926346416
 H         -4.2765921125       -2.0729323956        1.1990262051
 H         -5.2165189644       -1.0013970604        0.1694950605
 H         -5.6607897286        2.2948865236       -1.2002110761
 H         -5.7712602645        0.6895570275       -0.5143748423
 H         -4.1961769904        0.8566019636       -2.4119311416
 H         -3.2673152962        2.0825785192       -1.5721119437
 O         -1.7439668061        0.2761951230       -1.6061987101
 C         -0.6558606872       -0.5625601335       -1.4205016625
 O          0.3287698146       -0.2543892744       -2.1194242198
 O         -2.1446889394       -2.7688046494        1.0222576034
 C          0.3455317315       -2.5900730940       -0.2463092626
 C          1.3040528274       -1.9911842040        0.7546337180
 C          1.3492537025       -2.4770056448        2.0569414117
 C          2.2062368449       -1.9186765176        2.9880397724
 C          3.0256176773       -0.8607399922        2.6401617374
 C          2.9833610830       -0.3632266413        1.3411343225
 C          2.1304188294       -0.9312399416        0.4054763212
 H          2.1049939528       -0.5333487332       -0.5965458783
 N          3.8025659329        0.7099323171        0.9731731921
 S          3.4465886879        1.7246128806       -0.2967639451
 O          3.7257063476        1.0754384089       -1.5520795983
 O          4.2443971470        2.9045810934       -0.0223684332
 C          1.7255126187        2.1786661049       -0.1708144885
 C          1.0655124677        2.5296226652       -1.3299580736
 C         -0.2390952847        2.9889707966       -1.2486145133
 C         -0.8604035319        3.0838043456       -0.0141963337
 C         -0.1883810498        2.7171709222        1.1409124845
 C          1.1199310966        2.2674850801        1.0665214229
 H          1.6593530011        1.9842026902        1.9557406514
 H         -0.6787503083        2.7822682310        2.0993305457
 H         -1.8753692787        3.4440896767        0.0511996532
 H         -0.7637003488        3.2609906486       -2.1507967062
 H          1.5769802055        2.4221454028       -2.2726735634
 H          4.2868915217        1.1787098682        1.7235021578
 H          3.6941715945       -0.4202686992        3.3637536886
 H          2.2331339906       -2.3064356654        3.9949205804
 H          0.6941555284       -3.2885878664        2.3374951349
 H         -0.1316886885       -3.4583740253        0.2286282948
 C          1.0630498799       -3.0648770632       -1.4928535448
 C          1.8227312301       -4.3554579974       -1.4401699606
 C          0.5464956487       -4.2677411426       -2.2210770798
 H          0.5967628909       -4.2769259836       -3.2995693769
 H         -0.3301688941       -4.7563582679       -1.8210638621
 H          2.7540858928       -4.4257218378       -1.9809023829
 H          1.8105751307       -4.9057098606       -0.5113772427
 H          1.4757204773       -2.2633927343       -2.0917057362
