  62
        -98.94265352
 C          1.9410191703        1.4465379402        0.0521783151
 C          1.7038006673        0.0858124890        0.3636767419
 C          2.8956371471       -0.7123753614        0.6829746029
 C          4.1094721728       -0.1347616731        0.6977579536
 C          5.4132865330       -0.8192901200        1.0059164265
 C          6.0304242917       -1.5517336119       -0.1937938839
 C          5.3210076625       -2.8422991505       -0.6069665317
 H          5.9817569637       -3.3601431391       -1.3050828156
 H          5.2021112815       -3.4853671572        0.2655924872
 C          3.9590895304       -2.6303861374       -1.2833291777
 H          3.8761212942       -1.5936193376       -1.6181520505
 H          3.8932729347       -3.2583854685       -2.1747134364
 C          2.7549009772       -2.9643616427       -0.4025868734
 H          2.7533573743       -4.0325725371       -0.1747991224
 H          1.8462395011       -2.7382827045       -0.9668799828
 C          2.7065442057       -2.1810380118        0.9155070708
 H          1.7204734399       -2.3193169644        1.3656636904
 H          3.4615684805       -2.5577390588        1.6048704691
 H          6.0624525183       -0.8656032421       -1.0435369750
 H          7.0611118256       -1.7985616550        0.0713182793
 H          6.1065617364       -0.0387138175        1.3265997192
 H          5.2744783428       -1.5200872759        1.8296538988
 O          4.2902214137        1.1893221305        0.4440797275
 C          3.2201364748        2.0054214879        0.1119515116
 O          3.5305540469        3.1960716184       -0.0924699828
 H         -1.8021793266        1.6541881835       -0.9317462275
 C         -1.6314053935        1.8040145308        0.1204953975
 C         -0.3772187306        2.1590173059        0.5908776804
 C         -0.2023184868        2.3325660712        1.9620220810
 C         -1.2516891097        2.1357918784        2.8374083557
 C         -2.4991344516        1.7657966864        2.3653144732
 C         -2.6886492195        1.5995986244        0.9986289385
 N         -3.9600801948        1.2756905787        0.5006645348
 S         -4.2535925067        0.2075436380       -0.7477773144
 O         -3.5152794321        0.5984465366       -1.9212646484
 O         -5.6950784245        0.2050652167       -0.8759358534
 C         -3.7221753825       -1.3971958558       -0.1746965887
 C         -2.3759234039       -1.6572975671       -0.0159742395
 C         -1.9907482359       -2.9062480325        0.4468695076
 C         -2.9448424560       -3.8678699410        0.7390051022
 C         -4.2935142450       -3.5887333029        0.5753431144
 C         -4.6874848964       -2.3421548579        0.1178875896
 H         -5.7235958730       -2.0814964888       -0.0261425286
 H         -5.0363558543       -4.3364080600        0.8029395268
 H         -2.6355031601       -4.8378271954        1.0957857344
 H         -0.9388547267       -3.1059613302        0.5761034810
 H         -1.6365568222       -0.9039291467       -0.2342571307
 H         -4.6714859018        1.1784301744        1.2102857252
 H         -3.3198247503        1.6099311773        3.0490700472
 H         -1.0986436318        2.2673189333        3.8981463722
 H          0.7749153815        2.6144968652        2.3314204410
 C          0.8049025903        2.3820746508       -0.3216545457
 H          1.1913700739        3.3969831721       -0.1285204837
 C          0.4318331805        2.3300122739       -1.7961884917
 C          1.4407090273        1.9787432326       -2.8473544955
 C          0.3170186248        1.0364613949       -2.5428961327
 H         -0.4845091217        0.9278275448       -3.2594666020
 H          0.5414056645        0.1289362018       -2.0050334921
 H          2.4357236198        1.7133097341       -2.5198263538
 H          1.4206601319        2.5254263044       -3.7781873988
 H         -0.2799457866        3.1061550147       -2.0622034115
 O          0.5667217659       -0.4487841691        0.3802283460
