  62
        -98.93839589
 C         -2.1254851588        0.9550997046        0.3855501292
 C         -3.1280535678        1.1969012347       -0.5815068900
 C         -4.4317954934        0.5523013697       -0.3493426594
 C         -4.5965951373       -0.2085840613        0.7467749033
 C         -5.8160899955       -0.9981365878        1.1344538237
 C         -5.7044773069       -2.4476320243        0.6317576920
 C         -6.2108004983       -2.6769838304       -0.7919120917
 H         -5.9532069277       -3.7025609662       -1.0664479012
 H         -7.3000569897       -2.5994014312       -0.8018803793
 C         -5.6435188158       -1.7275175930       -1.8505344693
 H         -5.7674874494       -2.2021028019       -2.8259349650
 H         -4.5719225124       -1.5959915014       -1.6896370963
 C         -6.3423932764       -0.3598805973       -1.8716296180
 H         -6.6489658042       -0.1270271029       -2.8934881198
 H         -7.2565279405       -0.4190418144       -1.2811202339
 C         -5.4891817286        0.8215116025       -1.3851205527
 H         -4.9431574097        1.2485727933       -2.2321624855
 H         -6.1513505012        1.6096193737       -1.0115774583
 H         -4.6552719425       -2.7464649363        0.7027872750
 H         -6.2736996450       -3.0958300471        1.3012139901
 H         -6.7188268005       -0.5214028366        0.7642126228
 H         -5.8458567275       -1.0102429842        2.2259658405
 O         -3.6055600434       -0.4087139514        1.6587001641
 C         -2.3498476122        0.1534910085        1.5041533804
 O         -1.5450318462       -0.1256903477        2.4129513939
 O         -2.9388045607        1.9121776776       -1.6023376287
 C         -0.7529111840        1.5737026587        0.1876195050
 C          0.2731108093        0.4758498423        0.0567800438
 C          0.1179843631       -0.4608157134       -0.9626620840
 C          1.0142159386       -1.5008817067       -1.1124851631
 C          2.0909445573       -1.6285186393       -0.2519117738
 C          2.2630031704       -0.6927207365        0.7582864816
 C          1.3634254286        0.3570968226        0.9029100451
 H          1.5098426685        1.0698885018        1.6988832719
 N          3.3629136610       -0.8069363051        1.6226314273
 S          4.8563331133       -1.1629481992        0.9609403527
 O          4.9619167138       -2.5806248450        0.7206614985
 O          5.8209766701       -0.6066627649        1.8835306372
 C          4.8947181169       -0.2836471353       -0.5918653962
 C          4.7594804228        1.0904717061       -0.5656924909
 C          4.7523175099        1.7861183684       -1.7634398168
 C          4.8785695536        1.0995875240       -2.9616036734
 C          5.0193927851       -0.2791464326       -2.9709007521
 C          5.0257574715       -0.9803752984       -1.7755795521
 H          5.1297826460       -2.0525636956       -1.7379700824
 H          5.1197210992       -0.8102866373       -3.9036957277
 H          4.8678889836        1.6436685318       -3.8928656519
 H          4.6450948645        2.8589432881       -1.7589723376
 H          4.6692351366        1.5958727870        0.3822458626
 H          3.4221035268       -0.0807328955        2.3204657639
 H          2.7898323077       -2.4443188774       -0.3402788165
 H          0.8739568701       -2.2227796021       -1.9026645241
 H         -0.7253041325       -0.3638726192       -1.6326993732
 H         -0.8101732059        2.1043199471       -0.7736811444
 C         -0.4524787283        2.5769332187        1.2802488290
 C          0.5386112624        3.6747311820        1.0362853032
 C         -0.9241883881        3.9896079509        1.1178519566
 H         -1.2937970104        4.5120272362        1.9875361064
 H         -1.4481613781        4.2365196638        0.2062210048
 H          1.1748661420        3.9878007006        1.8504940003
 H          1.0097486533        3.7129193750        0.0660337611
 H         -0.5087213120        2.1454594797        2.2734895572
