  62
        -98.93471959
 C         -2.3833400560       -1.3241415620        0.1704487446
 C         -2.3224762833        0.0656363775       -0.0883389261
 C         -3.4749816812        0.8793188819        0.3618552579
 C         -4.4872877569        0.2787550077        1.0127916602
 C         -5.7666557076        0.8852598730        1.5254494335
 C         -6.7807236925        1.1665264539        0.4055361261
 C         -6.1924074687        1.8177356712       -0.8430920649
 H         -6.9851153835        1.8730303842       -1.5938151521
 H         -5.4083106556        1.1749909215       -1.2474079040
 C         -5.6400377657        3.2270389797       -0.6426395263
 H         -6.4349612702        3.8731154980       -0.2636526270
 H         -5.3474828912        3.6034369478       -1.6262828667
 C         -4.4306141252        3.3469242450        0.2878494656
 H         -4.7297088123        3.3021821850        1.3315997608
 H         -3.9977720758        4.3396701756        0.1327269737
 C         -3.3162946653        2.3407996950        0.0168815095
 H         -2.4117425042        2.6692979950        0.5439632249
 H         -3.0534110425        2.3765723562       -1.0469180176
 H         -7.5736233998        1.7982238156        0.8093710528
 H         -7.2266439415        0.2148458220        0.1062340412
 H         -6.2023605588        0.1578337642        2.2140171158
 H         -5.5528081068        1.7878030173        2.0900849267
 O         -4.4853973968       -1.0601086775        1.2723421267
 C         -3.4532767338       -1.8837607552        0.8750260170
 O         -3.5954063594       -3.0781638672        1.2051619496
 H          0.6624484212       -1.0287720383       -1.7042264962
 C          0.9344341701       -1.1279471786       -0.6650541180
 C          0.0602410151       -1.7423411031        0.2157660007
 C          0.4119529682       -1.8212320491        1.5600018496
 C          1.6139740926       -1.3048191907        2.0051766002
 C          2.4867701305       -0.6931021326        1.1218784248
 C          2.1339891642       -0.5888851836       -0.2164304458
 N          3.0051947855        0.0295081845       -1.1255671455
 S          3.8828940866        1.3809278547       -0.6706555861
 O          3.1959542609        2.1804096311        0.3167613726
 O          4.2164625346        2.0418572711       -1.9139771619
 C          5.3708442355        0.6918091542        0.0282602135
 C          6.0559753631       -0.2591500547       -0.7024921851
 C          7.2223478038       -0.7937934948       -0.1794507146
 C          7.6846087310       -0.3686959457        1.0571380735
 C          6.9881991181        0.5896991634        1.7769310094
 C          5.8198302356        1.1273687439        1.2594827475
 H          5.2432352171        1.8710034877        1.7867223690
 H          7.3490759796        0.9200267987        2.7377608873
 H          8.5928773041       -0.7862752417        1.4621057043
 H          7.7664075438       -1.5394530572       -0.7364872656
 H          5.6662517820       -0.5610701435       -1.6601103710
 H          2.6152431074        0.1415328058       -2.0499801117
 H          3.4190498135       -0.2760920230        1.4656968475
 H          1.8754461271       -1.3758608949        3.0501660930
 H         -0.2762628125       -2.2854639418        2.2534807395
 C         -1.2747131334       -2.2857091662       -0.2271080781
 H         -1.4763969188       -3.1981527171        0.3565709254
 C         -1.2918906137       -2.7003862288       -1.6911640410
 C         -2.5927516368       -2.9485402112       -2.3933224214
 C         -1.7307298610       -1.7927862303       -2.7989944451
 H         -1.2080601718       -1.8526022306       -3.7429869376
 H         -2.0482241488       -0.7950184345       -2.5412855313
 H         -3.4996068626       -2.7419130153       -1.8432971966
 H         -2.6679154900       -3.7959952455       -3.0577524210
 H         -0.4820421839       -3.3866234400       -1.9202545305
 O         -1.3673242048        0.6323509092       -0.6819340866
