  62
        -98.94225786
 C         -1.9358789406       -1.3304524002       -0.1164001900
 C         -3.0635033304       -1.2222978403        0.7395640803
 C         -4.2458533303       -0.5490457697        0.1882905009
 C         -4.2103879104       -0.0965385490       -1.0778286489
 C         -5.3220074703        0.6493124016       -1.7559659183
 C         -5.1698730899        2.1650762715       -1.5671274975
 C         -4.9223283195        2.5853919206       -0.1181819173
 H         -3.9482701696        2.2079295102        0.2023435824
 H         -4.8637531792        3.6759578306       -0.1014798867
 C         -5.9976515495        2.1157848803        0.8716941727
 H         -6.2534864092        2.9482242400        1.5305961432
 H         -6.9040023196        1.8406743109        0.3310464227
 C         -5.5699500796        0.9528459297        1.7691847919
 H         -4.6120246895        1.1872865992        2.2406767819
 H         -6.3103701795        0.8497814395        2.5668858820
 C         -5.4472338801       -0.4121921199        1.0802657411
 H         -5.3280496102       -1.1689406004        1.8611866707
 H         -6.3640266803       -0.6292513494        0.5282151412
 H         -4.3261036299        2.5069197616       -2.1712290774
 H         -6.0729481398        2.6519453119       -1.9397754470
 H         -5.2901781805        0.4200914422       -2.8225252484
 H         -6.2755309503        0.3161057617       -1.3509258383
 O         -3.1224621906       -0.2296775189       -1.8750160191
 C         -1.9528889806       -0.8282161894       -1.4182053097
 O         -1.0396210808       -0.8354417292       -2.2648609198
 O         -3.0795614003       -1.6789169010        1.9139594700
 C         -0.7152653306       -2.0276858808        0.4591796094
 C          0.2696462297       -1.0409258414        1.0320610198
 C          0.7983453399       -1.2161776422        2.3054297796
 C          1.7120107402       -0.3124927728        2.8205913300
 C          2.1183046104        0.7805831375        2.0769346605
 C          1.5976697302        0.9629849484        0.8018573907
 C          0.6829556999        0.0554800489        0.2873738204
 H          0.2872549898        0.1997581596       -0.7072568595
 N          2.0116160104        2.0653133587        0.0300271313
 S          3.6637149704        2.2852425284       -0.1486885489
 O          4.1965146807        2.8805114576        1.0513227214
 O          3.8206714704        3.0538869090       -1.3623558485
 C          4.3169704599        0.6392472883       -0.3544030599
 C          4.9940370399        0.0294897676        0.6821985096
 C          5.4288606096       -1.2763228125        0.5205281288
 C          5.1793840592       -1.9460658717       -0.6671117615
 C          4.5036235492       -1.3172118310       -1.7016836810
 C          4.0626433796       -0.0133064109       -1.5445273402
 H          3.5329047896        0.5058749096       -2.3277298498
 H          4.3092988089       -1.8392902004       -2.6246730413
 H          5.5114628289       -2.9646492117       -0.7896656321
 H          5.9562931996       -1.7675464030        1.3221052985
 H          5.1711975602        0.5872080770        1.5868311099
 H          1.5509755802        2.1151956393       -0.8674265686
 H          2.8235048206        1.4988081871        2.4625105008
 H          2.1098848703       -0.4586481534        3.8129853198
 H          0.4773043398       -2.0601372625        2.8979863892
 H         -1.1090926307       -2.6220809412        1.2986942392
 C         -0.0691939411       -3.0022793504       -0.5169720412
 C          1.2379028489       -2.7532437804       -1.2009469513
 C          1.1497328688       -3.7786126010       -0.1134925219
 H          1.2068873985       -4.8235651508       -0.3771563825
 H          1.6008985390       -3.5338905216        0.8360693582
 H          1.3330322986       -3.0815040798       -2.2244532515
 H          1.7591704392       -1.8325260906       -0.9918118209
 H         -0.8161519413       -3.5364312199       -1.0963254714
