  62
        -98.94698842
 C         -2.3267701073       -0.3283048311       -0.4595335616
 C         -1.4193514716        0.5189167281       -1.1391789813
 C         -1.5533222495        1.9589890348       -0.8741222893
 C         -2.4831665198        2.3914856977       -0.0053482668
 C         -2.6960207740        3.8234155973        0.3903336931
 C         -1.8718420731        4.1946952981        1.6302765152
 C         -0.3970148967        3.8010904445        1.5397064300
 H          0.0915080849        4.1619162281        2.4481681990
 H         -0.3065011437        2.7116539357        1.5462795576
 C          0.3365034104        4.3561510660        0.3108337610
 H          1.3074798797        4.7406623554        0.6303966770
 H         -0.2225199143        5.1922285478       -0.1122899071
 C          0.6059501429        3.3131213832       -0.7751232527
 H          1.0426741566        2.4258516044       -0.3099735343
 H          1.3447646843        3.7226115014       -1.4696572722
 C         -0.6150103506        2.8829611726       -1.5990893806
 H         -1.1470163978        3.7666610907       -1.9583137840
 H         -0.2527401661        2.3241836437       -2.4668195651
 H         -1.9520692851        5.2726370475        1.7855306081
 H         -2.3056397494        3.6929733632        2.4985499897
 H         -2.4256143328        4.4683339503       -0.4436549606
 H         -3.7550584801        3.9615447184        0.6162929232
 O         -3.3303902826        1.5515244918        0.6426683502
 C         -3.2638309600        0.1847109435        0.4426205069
 O         -4.0955009275       -0.4673974348        1.1078394787
 O         -0.5343338056        0.1203306221       -1.9435716347
 C         -2.3257572396       -1.8455331818       -0.5836853682
 C         -1.3354669603       -2.4384353863        0.3913435537
 C         -1.7230320243       -3.4077952314        1.3080743233
 C         -0.8171595931       -3.9038865455        2.2290911397
 C          0.4757241536       -3.4155008690        2.2758239271
 C          0.8730509517       -2.4438407193        1.3629971477
 C         -0.0211885588       -1.9941095114        0.4047454162
 H          0.2977192642       -1.2550193301       -0.3089179751
 N          2.1696677678       -1.9080368661        1.3993563003
 S          2.4200972949       -0.2433088479        1.2902272975
 O          3.3211224707        0.0703759003        2.3830877292
 O          1.1722881309        0.4772857496        1.2715086966
 C          3.3227742548       -0.0644285620       -0.2360967402
 C          2.6663851520        0.1440744529       -1.4317957759
 C          3.4164940298        0.2566332978       -2.5933639511
 C          4.7975716508        0.1561600221       -2.5443198992
 C          5.4422374392       -0.0553335666       -1.3347221994
 C          4.7002268352       -0.1668323068       -0.1710966646
 H          5.1597976918       -0.3160421139        0.7919925671
 H          6.5169138948       -0.1321004917       -1.2952607942
 H          5.3729364049        0.2448120319       -3.4524562068
 H          2.9085315669        0.4211283183       -3.5303062378
 H          1.5901667181        0.2212788059       -1.4604821820
 H          2.7457122896       -2.2896716488        2.1362515232
 H          1.1728235044       -3.7757972687        3.0177618518
 H         -1.1277129623       -4.6596637479        2.9347930468
 H         -2.7452902336       -3.7567703154        1.3102391552
 H         -3.3294727376       -2.1701337563       -0.2754007838
 C         -2.0716587723       -2.3519275142       -1.9895957238
 C         -2.5742559260       -3.7098647437       -2.3736018442
 C         -3.2213378543       -2.4825790025       -2.9405977591
 H         -3.0586106344       -2.2422312090       -3.9802907705
 H         -4.2021055522       -2.2091720740       -2.5785018148
 H         -1.9653509783       -4.3176062936       -3.0249220129
 H         -3.1199940670       -4.2717877246       -1.6307723425
 H         -1.1229419594       -2.0308924443       -2.3974734230
