  62
        -98.93462971
 C         -1.8466531102       -0.6493040795       -0.0779584705
 C         -2.5890220900       -0.1489410795        1.0203392596
 C         -3.6816974099        0.7880748407        0.7111061298
 C         -3.8827331499        1.1639962508       -0.5631225901
 C         -4.9053742299        2.1292242110       -1.1085896899
 C         -6.3293485898        2.0482503812       -0.5421758698
 C         -6.7920611900        0.6378972312       -0.1478893199
 H         -6.0896216301       -0.1061837289       -0.5274471600
 H         -7.7591349301        0.4389476614       -0.6133808198
 C         -6.9541766298        0.4632064911        1.3641099301
 H         -7.6125474900       -0.3886590389        1.5506532501
 H         -7.4463912097        1.3506730011        1.7678802903
 C         -5.6606170598        0.2132257708        2.1385114700
 H         -5.2783492000       -0.7852814392        1.9089767598
 H         -5.8989640197        0.2260059607        3.2047578500
 C         -4.5270942197        1.2178668707        1.8754776799
 H         -3.8653355696        1.2126379605        2.7460640999
 H         -4.9154503896        2.2246302707        1.7417748301
 H         -6.9955012198        2.4493320713       -1.3079581197
 H         -6.4158627196        2.7049236311        0.3224175403
 H         -4.9278498800        1.9397964111       -2.1845992599
 H         -4.5221655697        3.1446652110       -0.9703878999
 O         -3.1012481701        0.7109313608       -1.5829358003
 C         -2.0714458502       -0.1988122894       -1.3789384305
 O         -1.4566282704       -0.5019515493       -2.4171180005
 O         -2.3391670399       -0.4605174797        2.2155492196
 C         -0.7287568303       -1.6327154797        0.2182828493
 C          0.5394949097       -1.2010448998       -0.4737389708
 C          1.2306970695       -1.9873805298       -1.3847361110
 C          2.3846502295       -1.5134610699       -1.9855388010
 C          2.8765193797       -0.2566513000       -1.6886284810
 C          2.1979244599        0.5346911200       -0.7696153208
 C          1.0473946099        0.0556224501       -0.1640087208
 H          0.5157633601        0.6764637301        0.5472097494
 N          2.6957906202        1.8097301399       -0.4512752607
 S          4.3379688802        1.9609098096       -0.1690674009
 O          4.4660412705        3.0950336295        0.7194887792
 O          5.0407549901        2.0636254596       -1.4236993210
 C          4.8076665301        0.4543303195        0.6640282689
 C          4.1998257902        0.1615957994        1.8689239089
 C          4.5224963601       -1.0217794707        2.5125231888
 C          5.4431414399       -1.8882455207        1.9428642386
 C          6.0492114398       -1.5771843307        0.7358240086
 C          5.7282307399       -0.3958126706        0.0863726987
 H          6.1724434698       -0.1164341206       -0.8550113913
 H          6.7661694597       -2.2517601708        0.2964808384
 H          5.6890989798       -2.8106104808        2.4448627785
 H          4.0520106401       -1.2646773307        3.4518117588
 H          3.4920280903        0.8586468695        2.2885768291
 H          2.1548161603        2.3018728499        0.2437667994
 H          3.7621776797        0.1327248399       -2.1639400410
 H          2.9047076194       -2.1301849399       -2.7024083412
 H          0.8523405794       -2.9612156697       -1.6471849310
 H         -0.5674668701       -1.5348202298        1.3052683093
 C         -1.0918645505       -3.0887234896       -0.0309693608
 C         -2.5147177306       -3.5530625094        0.0472851393
 C         -1.8020613807       -3.5414633394       -1.2701432208
 H         -1.5187328009       -4.4886863294       -1.7055435909
 H         -2.0692554307       -2.7903439293       -1.9965455307
 H         -2.7205523806       -4.5037207594        0.5159173392
 H         -3.2763454904       -2.8067158993        0.2219281194
 H         -0.3462861806       -3.7652426298        0.3751990490
