  62
        -98.94967442
 C          1.5002771338        1.0568239168        0.0453380980
 C          2.5215705770        0.6360624687        0.9273917028
 C          3.0588209513       -0.7096708631        0.6923402949
 C          2.5370196714       -1.4633673267       -0.2931471189
 C          3.0163577985       -2.8359314244       -0.6658762385
 C          4.1043864984       -2.7732707993       -1.7471821839
 C          5.2249210160       -1.7805852485       -1.4373845698
 H          4.8153081204       -0.7680243844       -1.4458284573
 H          5.9489309623       -1.8426374464       -2.2525604680
 C          5.9381526753       -2.0260759579       -0.1005200072
 H          7.0155528012       -1.9422862160       -0.2574144179
 H          5.7386170497       -3.0410434702        0.2449939619
 C          5.5713106161       -1.0346320409        1.0052238777
 H          5.6802348416       -0.0131348592        0.6323189224
 H          6.2826387803       -1.1614719370        1.8256513304
 C          4.1630594882       -1.1830024595        1.5955723541
 H          4.1084035469       -0.5536658144        2.4890840491
 H          3.9955733380       -2.2191445955        1.8980432666
 H          3.6376053020       -2.4804590595       -2.6903846710
 H          4.5245637925       -3.7729845526       -1.8713851000
 H          3.3989277822       -3.3337093351        0.2232480111
 H          2.1642053341       -3.4025193631       -1.0457557846
 O          1.5372936553       -1.0361929638       -1.1037003490
 C          0.9907468771        0.2264174669       -0.9520089330
 O          0.0778826620        0.4936493535       -1.7579718434
 H         -0.4371813223        0.5646289207        1.6046026888
 C         -1.1098033212        1.2866991697        1.1644761589
 C         -0.6033478740        2.3340195473        0.4054602599
 C         -1.4979426887        3.2486990541       -0.1373428737
 C         -2.8606827407        3.1003064601        0.0555717478
 C         -3.3613546657        2.0282100691        0.7711721941
 C         -2.4740646512        1.1133778288        1.3251473228
 N         -2.9276423866       -0.0179708397        2.0391875813
 S         -2.6292944918       -1.5023559715        1.3141363243
 O         -3.2689322466       -2.4759576072        2.1742072392
 O         -1.2153244994       -1.6713106641        1.1015826472
 C         -3.5176252074       -1.4063953876       -0.2302408991
 C         -2.9493435874       -0.7524953263       -1.3049366513
 C         -3.6967863156       -0.6099309364       -2.4649394888
 C         -4.9859029453       -1.1148189397       -2.5300100941
 C         -5.5405466715       -1.7698189325       -1.4403563350
 C         -4.8032387183       -1.9124828135       -0.2766842423
 H         -5.1897227009       -2.4157567859        0.5950523571
 H         -6.5422165505       -2.1650664198       -1.4930224121
 H         -5.5599037896       -0.9977680841       -3.4356731619
 H         -3.2574789167       -0.0999062884       -3.3072524267
 H         -1.9415691277       -0.3711421907       -1.2390817336
 H         -3.9069913768        0.0296018576        2.2881234820
 H         -4.4251024277        1.8957688584        0.8999866598
 H         -3.5420554382        3.8189470706       -0.3732517213
 H         -1.1267058756        4.0774996756       -0.7177580924
 C          0.8907799606        2.4348316777        0.2208561457
 H          1.3284839517        2.8338759317        1.1487602719
 C          1.2907059212        3.3340194585       -0.9321894926
 C          1.4915786434        4.8040360077       -0.7188552292
 C          2.6731108144        3.9120269746       -0.9488996144
 H          3.1955327106        3.9748951681       -1.8917043439
 H          3.3136450019        3.6813391488       -0.1100001934
 H          1.3382692679        5.1909874086        0.2771888694
 H          1.2049859576        5.4833172093       -1.5075204146
 H          0.8751307336        3.0030673439       -1.8776225866
 O          2.9601504543        1.3525901844        1.8695688996
