  62
        -98.93004438
 C         -2.2140781104        0.6288653063       -0.1486739371
 C         -3.4588620742        1.0469545478       -0.6839424938
 C         -4.6658714224        0.5344847461       -0.0188386677
 C         -4.5290900478       -0.3014243672        1.0260993915
 C         -5.6551232021       -0.9718186755        1.7608098784
 C         -6.1929787286       -2.1562994062        0.9325687555
 C         -7.6300034455       -1.9809421759        0.4409748510
 H         -7.8201817691       -2.7621699094       -0.2980229839
 H         -8.3133267880       -2.1445860759        1.2768811288
 C         -7.9631053410       -0.6192525263       -0.1761830413
 H         -8.9113430068       -0.7336620069       -0.7056517881
 H         -8.1356275515        0.1107370678        0.6160209102
 C         -6.9219049719       -0.0505942730       -1.1488513201
 H         -6.3196457231       -0.8507572173       -1.5796104403
 H         -7.4532965537        0.4268013934       -1.9746761799
 C         -5.9917255170        1.0156775409       -0.5406581715
 H         -5.7379398959        1.7416967626       -1.3187750850
 H         -6.5213139871        1.5538200041        0.2505056989
 H         -5.5296083021       -2.3049993165        0.0779530640
 H         -6.1445189574       -3.0685572576        1.5289943107
 H         -5.2570420094       -1.3233747124        2.7128081754
 H         -6.4458471886       -0.2512362147        1.9576538152
 O         -3.3195394868       -0.7047822455        1.4923808629
 C         -2.1316551013       -0.2617183668        0.9222496954
 O         -1.1127933609       -0.7356478214        1.4569631400
 O         -3.5553470215        1.8140066036       -1.6793913189
 C         -0.9546869689        1.1478571805       -0.8179444369
 C          0.0278544780        0.0280848098       -1.0486985965
 C         -0.3347639690       -1.0167162639       -1.8958630226
 C          0.5339418637       -2.0612266715       -2.1428673011
 C          1.7927109094       -2.0766653264       -1.5676949803
 C          2.1614817699       -1.0430828782       -0.7161523398
 C          1.2803109747       -0.0018718529       -0.4586940032
 H          1.5877229245        0.7735417649        0.2228770269
 N          3.4211365224       -1.0371306655       -0.0963971864
 S          4.1960919506        0.4474716164        0.1115711809
 O          3.7682110067        1.0389186466        1.3541317532
 O          4.0283412828        1.2609990825       -1.0721303058
 C          5.8921534758       -0.0875538433        0.2542621990
 C          6.3535764973       -0.5215120436        1.4827485472
 C          7.6616770463       -0.9670645612        1.5874990979
 C          8.4818531822       -0.9721801056        0.4689241353
 C          8.0055258510       -0.5317058352       -0.7567645566
 C          6.6978989412       -0.0860775862       -0.8689024451
 H          6.2871685818        0.2740397695       -1.7984596996
 H          8.6465965143       -0.5333505234       -1.6235370671
 H          9.4996927424       -1.3185871958        0.5538759116
 H          8.0362702533       -1.3070846184        2.5394953010
 H          5.6825651934       -0.4904768757        2.3254138175
 H          4.0458664937       -1.7431525566       -0.4605359940
 H          2.4767525227       -2.8879853593       -1.7657974921
 H          0.2351028650       -2.8658603269       -2.7980245241
 H         -1.3152138843       -0.9994215532       -2.3531241584
 H         -1.2961356937        1.5028552173       -1.8056233002
 C         -0.3296575922        2.3482217234       -0.1232852500
 C         -1.1686511931        3.3361340919        0.6287169447
 C         -0.2169001209        2.4459004867        1.3672938677
 H          0.6833464600        2.8764865798        1.7823531649
 H         -0.6161953637        1.6328322040        1.9533340574
 H         -0.9302737315        4.3852083915        0.5385588251
 H         -2.2262349150        3.1320724458        0.7122646774
 H          0.4983164305        2.7578475756       -0.6961655357
