  62
        -98.94027413
 C          2.0081820484        0.0940279766       -0.4817495831
 C          2.8142654846       -0.5493236488        0.4902391566
 C          4.1403255052        0.0483739626        0.7108221941
 C          4.4984047977        1.1642596124        0.0524545884
 C          5.8010049677        1.9028774029        0.1990210433
 C          6.9429147508        1.3295322872       -0.6513437593
 C          7.5133279493       -0.0024604752       -0.1622657488
 H          7.7748602107        0.0814461888        0.8930383415
 H          8.4392850704       -0.1759307359       -0.7142620763
 C          6.5821413330       -1.2049917319       -0.3702571939
 H          7.1511311017       -2.0371276972       -0.7910770802
 H          5.8099144070       -0.9451567186       -1.0980777445
 C          5.9097981544       -1.7142259694        0.9047719202
 H          6.6682083745       -2.1004649497        1.5893190806
 H          5.2467063341       -2.5404222394        0.6360924107
 C          5.0765358413       -0.6591022499        1.6438253773
 H          5.7307755297        0.0558553197        2.1421428680
 H          4.4719187038       -1.1671537277        2.3989788360
 H          7.7491978639        2.0667144207       -0.6532254967
 H          6.5912379086        1.2200892719       -1.6799442509
 H          6.0987070954        1.9176723040        1.2479226479
 H          5.6134589627        2.9294489779       -0.1233889769
 O          3.6762326755        1.7799796833       -0.8392672781
 C          2.4327509717        1.2519263439       -1.1393104123
 O          1.7997591974        1.8948449021       -2.0023089106
 O          2.4675975449       -1.5613536297        1.1492781235
 C          0.6252299461       -0.3988723813       -0.8754770734
 C         -0.4247810015        0.2008175526        0.0230540748
 C         -0.3349599411        0.0928385488        1.4074573693
 C         -1.3105102527        0.6423972676        2.2190616475
 C         -2.3958473211        1.3029898823        1.6697212999
 C         -2.4964115671        1.4120417308        0.2897178104
 C         -1.5141751867        0.8623782512       -0.5239031030
 H         -1.5900004221        0.9649012804       -1.5981427665
 N         -3.6215862523        2.0525739448       -0.2703917511
 S         -5.1002362834        1.3454165489        0.0949322923
 O         -6.0107368624        1.7981301295       -0.9317925337
 O         -5.4579233394        1.6673506138        1.4524433839
 C         -4.7843462476       -0.4022367072       -0.0641426293
 C         -4.7714192044       -0.9510847795       -1.3312958055
 C         -4.4257089764       -2.2842088630       -1.4811322438
 C         -4.0858254279       -3.0380034364       -0.3679763306
 C         -4.1059070405       -2.4727057392        0.8972430273
 C         -4.4581486894       -1.1417420376        1.0547948071
 H         -4.4889825526       -0.6671437429        2.0215189540
 H         -3.8414827013       -3.0619744747        1.7604157127
 H         -3.8001515366       -4.0706553761       -0.4881701528
 H         -4.4127400474       -2.7285537896       -2.4635197599
 H         -5.0425243471       -0.3315377921       -2.1714488738
 H         -3.5448999435        2.1896535459       -1.2684783983
 H         -3.1699729975        1.7302402521        2.2866408804
 H         -1.2265861017        0.5544999125        3.2917148331
 H          0.5046495446       -0.4323324453        1.8365290613
 H          0.4596695312        0.0006821989       -1.8884738197
 C          0.5300642090       -1.9170052247       -0.9653446073
 C         -0.3458149130       -2.7482317019       -0.0809463811
 C         -0.7146523103       -2.5468313742       -1.5175707054
 H         -0.6160012547       -3.3739391102       -2.2037639755
 H         -1.5476361028       -1.8924041719       -1.7280526685
 H          0.0337649823       -3.7090687251        0.2305761084
 H         -0.9393139678       -2.2497836955        0.6689919720
 H          1.4726388158       -2.3644166767       -1.2619931113
