  62
        -98.93782453
 C         -1.2009276904       -1.5239692183        0.3523016780
 C         -1.7222755802       -0.5353179053        1.2203453652
 C         -2.8966516043        0.2271554595        0.7565295851
 C         -3.3797820585       -0.0211365234       -0.4743160382
 C         -4.5342634221        0.6414143889       -1.1780648659
 C         -4.1762134042        2.0352039058       -1.7166851299
 C         -3.4004093291        2.9205625296       -0.7448384050
 H         -2.4623737065        2.4283871162       -0.4775926820
 H         -3.1307143202        3.8376510065       -1.2762376371
 C         -4.1581337206        3.3194788123        0.5198887585
 H         -5.0714681452        3.8474085110        0.2359676952
 H         -3.5237001798        4.0231818582        1.0651155307
 C         -4.5302979054        2.1803422010        1.4720382390
 H         -5.3967202068        1.6326086755        1.1111408505
 H         -4.8242300995        2.6356737585        2.4223010673
 C         -3.3905368245        1.2164876268        1.7841570899
 H         -2.5110116830        1.7933636930        2.0935307593
 H         -3.6673344076        0.6187878396        2.6612139210
 H         -5.0984569859        2.5379251806       -2.0141137324
 H         -3.5577888905        1.9054923864       -2.6085532574
 H         -5.3966957053        0.6906648648       -0.5198552646
 H         -4.7952743594        0.0000702808       -2.0230242311
 O         -2.8112570452       -0.9429624620       -1.3019604119
 C         -1.7024490951       -1.6881927367       -0.9392153093
 O         -1.2816437054       -2.4380876891       -1.8399931215
 O         -1.2166185651       -0.2820653074        2.3482523692
 C          0.0401074363       -2.2720714019        0.8037058071
 C          1.1464878321       -2.0832634732       -0.2052806095
 C          1.9828564328       -3.0952394521       -0.6566665415
 C          2.9898602001       -2.8126898645       -1.5647414530
 C          3.1984804645       -1.5255253422       -2.0254287558
 C          2.3634187732       -0.5059147254       -1.5810717846
 C          1.3536164527       -0.7952898486       -0.6807839995
 H          0.6897005838       -0.0048564122       -0.3682704512
 N          2.5201195797        0.8148231182       -2.0231829776
 S          2.1041572875        2.0910522338       -1.0305756523
 O          0.6711624549        2.2221428891       -0.9398147482
 O          2.8040053266        3.2225933152       -1.6016091615
 C          2.8121371321        1.6917375214        0.5581543507
 C          4.1910057962        1.6657122565        0.6472466204
 C          4.7815811811        1.3226103527        1.8517706940
 C          3.9868730984        1.0067497732        2.9437676465
 C          2.6054573095        1.0432757447        2.8409952494
 C          2.0091069270        1.3901336916        1.6384892375
 H          0.9352495674        1.4187428946        1.5356176674
 H          1.9788050151        0.7965130224        3.6833860901
 H          4.4449314604        0.7325800490        3.8809398018
 H          5.8560733807        1.2988213062        1.9354394364
 H          4.7744883459        1.9280831234       -0.2201844590
 H          3.3465983691        0.9986046710       -2.5711385016
 H          3.9851055662       -1.3114107932       -2.7323174518
 H          3.6270099517       -3.6097503314       -1.9167229786
 H          1.8366180370       -4.1071008471       -0.3165094929
 H          0.3475132969       -1.7386401238        1.7204636471
 C         -0.1843733940       -3.7208380418        1.2095438040
 C         -1.5540626015       -4.2383164266        1.5302646549
 C         -0.8389286313       -4.7209009277        0.3057838978
 H         -0.4591146392       -5.7323303690        0.3017617242
 H         -1.1775659980       -4.3732863300       -0.6570187685
 H         -1.6659565699       -4.9134201920        2.3656241487
 H         -2.3878040311       -3.5634731001        1.3977521898
 H          0.6200887341       -4.0934440823        1.8363268571
