  62
        -98.94400442
 C         -1.4924362211       -1.0960692305        0.8844847093
 C         -2.3032854893       -0.5823953967       -0.1591423171
 C         -2.8747046989        0.7518377290        0.0698768941
 C         -2.5369019557        1.4504285542        1.1668118424
 C         -3.0231040766        2.8269206306        1.5301305695
 C         -2.2521898885        3.9574913390        0.8349485250
 C         -2.5690342967        4.1464487018       -0.6491669029
 H         -3.6498608038        4.1980772412       -0.7879797564
 H         -2.1551851682        5.1134361300       -0.9426451604
 C         -1.9792619765        3.0658046775       -1.5663673099
 H         -1.1717568325        2.5409324751       -1.0497648426
 H         -1.5281872046        3.5410393971       -2.4415289614
 C         -2.9924535526        2.0438697510       -2.0825090215
 H         -3.7056908497        2.5385139996       -2.7469549107
 H         -2.4505811921        1.2938742756       -2.6646935131
 C         -3.7777655640        1.3146324062       -0.9860850521
 H         -4.5091658773        1.9874611571       -0.5379535081
 H         -4.3079584551        0.4783847227       -1.4494913115
 H         -1.1808860860        3.7745896315        0.9507563384
 H         -2.4923932707        4.8864731059        1.3579304268
 H         -4.0858748702        2.9145280495        1.3014702252
 H         -2.8894170555        2.9302296908        2.6092827494
 O         -1.6919859115        0.9570670338        2.1098172997
 C         -1.1397359174       -0.3075400974        1.9821241335
 O         -0.3543810778       -0.6101905323        2.9044713985
 H          1.0945943551       -0.7458950739        0.1349895017
 C          0.9150711423       -1.4150851587       -0.6923050950
 C         -0.0282646682       -2.4242229107       -0.5418950398
 C         -0.2563528376       -3.2887273017       -1.6017146649
 C          0.4241337097       -3.1113658997       -2.7952486059
 C          1.3180626789       -2.0693281888       -2.9603900864
 C          1.5611974607       -1.2052537402       -1.8966132129
 N          2.4634412301       -0.1408991249       -2.0164103173
 S          2.3814514973        1.2088189656       -1.0336859685
 O          1.0283988346        1.5634308113       -0.6765881509
 O          3.1281784784        2.2136657086       -1.7622497362
 C          3.3220261539        0.7282989025        0.3993965843
 C          2.7451649699        0.7219344680        1.6526296027
 C          3.5106259006        0.3351013647        2.7420511480
 C          4.8347843037       -0.0311665860        2.5605048981
 C          5.4032497191       -0.0126199596        1.2951632805
 C          4.6418656451        0.3692464510        0.2033737904
 H          5.0450296174        0.4026736160       -0.7949791865
 H          6.4341312341       -0.2967323835        1.1583255553
 H          5.4251806024       -0.3323488516        3.4114149178
 H          3.0576592906        0.3156409140        3.7205398770
 H          1.7081252115        1.0014506590        1.7660530024
 H          2.7743561395        0.0691062748       -2.9524205730
 H          1.8170832690       -1.9152792395       -3.9049818876
 H          0.2347293874       -3.7811491352       -3.6205411499
 H         -0.9889552038       -4.0734496568       -1.5073404106
 C         -0.7812794678       -2.4376336400        0.7650735790
 H         -0.0381093973       -2.4310411833        1.5796205362
 C         -1.6432384804       -3.6689427276        0.9828918137
 C         -2.8348317014       -3.6152233916        1.8914227459
 C         -3.0224911505       -3.8242737487        0.4202215394
 H         -3.3226521891       -4.8050394132        0.0802526169
 H         -3.4177902119       -3.0161812831       -0.1727769038
 H         -3.0127374173       -4.4441143607        2.5600301132
 H         -3.0976029537       -2.6523953430        2.3063183038
 H         -1.0401208182       -4.5705631187        1.0362253224
 O         -2.5590738983       -1.1943106544       -1.2277284425
