  62
        -98.93878611
 C         -1.0653213991       -1.5034372303        0.2373951101
 C         -1.4006563291       -0.2170830706        0.7195439308
 C         -2.5052038295        0.4882659495        0.0411050315
 C         -3.1004395697       -0.1041823501       -1.0108082986
 C         -4.2504658501        0.3986686001       -1.8437400380
 C         -5.6031749898        0.2853777695       -1.1250564976
 C         -5.6020514394        0.7755227189        0.3199779026
 H         -6.5900453793        0.5698578885        0.7404244228
 H         -4.8786444792        0.1940566888        0.8939716621
 C         -5.3167253696        2.2647299689        0.5004341831
 H         -5.4738333493        2.4968619684        1.5568461033
 H         -6.0429231899        2.8414364690       -0.0764908464
 C         -3.9074660698        2.7273388393        0.1200419429
 H         -3.7617419499        3.7169189491        0.5620477933
 H         -3.8073659002        2.8512717898       -0.9547739671
 C         -2.7859949595        1.8402698592        0.6498914721
 H         -1.8390781896        2.3869276694        0.5773442021
 H         -2.9374727491        1.6685721087        1.7216808521
 H         -5.8987764996       -0.7667167905       -1.1215161080
 H         -6.3454482501        0.8414509996       -1.7004991872
 H         -4.2805683003       -0.2245960796       -2.7402918983
 H         -4.0671451004        1.4216880202       -2.1581171876
 O         -2.7201656797       -1.3342130398       -1.4615621493
 C         -1.7016201994       -2.0593818199       -0.8717847299
 O         -1.4722866393       -3.1546539197       -1.4189869805
 O         -0.8051458689        0.3299338191        1.6871413308
 C          0.0834277913       -2.2450513504        0.9003185294
 C          1.2599077809       -2.2108085098       -0.0433367409
 C          1.7189995109       -3.3183536594       -0.7434058916
 C          2.7718933306       -3.1920512088       -1.6330673219
 C          3.3963778903       -1.9734441887       -1.8247982315
 C          2.9465558004       -0.8590730390       -1.1244015409
 C          1.8799642207       -0.9835804096       -0.2501777906
 H          1.5247066907       -0.1157392099        0.2871232699
 N          3.5473783901        0.3969403711       -1.2996494405
 S          3.7990696604        1.3782748006        0.0343227298
 O          4.8792109401        2.2564847410       -0.3676662102
 O          4.0336274909        0.6003580601        1.2284579794
 C          2.3213642003        2.3553795103        0.1930536607
 C          1.7843157806        2.5729736497        1.4454633310
 C          0.6869109005        3.4092248794        1.5687331817
 C          0.1482986301        4.0092690798        0.4412383021
 C          0.6932082997        3.7722511004       -0.8121831482
 C          1.7937513098        2.9411563807       -0.9405967889
 H          2.2487041895        2.7392029712       -1.8961795591
 H          0.2639668993        4.2341030008       -1.6869177278
 H         -0.7006449100        4.6682310096        0.5401121627
 H          0.2531140608        3.5802482789        2.5406398419
 H          2.2260008510        2.0783046094        2.2957547906
 H          4.3456152899        0.4022292215       -1.9183003708
 H          4.2235655701       -1.8803303382       -2.5122925318
 H          3.1161078806       -4.0576068785       -2.1788203423
 H          1.2425578911       -4.2745335995       -0.6049149018
 H          0.3473089514       -1.6447293707        1.7827929896
 C         -0.3089814884       -3.6333601307        1.3544555789
 C          0.5508043021       -4.3474731510        2.3529508284
 C         -0.7968440779       -3.8319869614        2.7569480790
 H         -1.5907396077       -4.5429600616        2.9300899190
 H         -0.8403100878       -2.9641843516        3.3988854494
 H          0.6842315822       -5.4136795309        2.2517048979
 H          1.4239645921       -3.8276192910        2.7183418783
 H         -0.7827414385       -4.2200175804        0.5769137988
