  62
        -98.94080767
 C          2.6584750282        0.1039329051        0.3418600604
 C          2.6957196676        1.1123697856       -0.6550511330
 C          2.1509531604        2.4209030889       -0.2855950440
 C          1.6332042261        2.5981867328        0.9427341811
 C          1.0009365024        3.8598235959        1.4645200386
 C         -0.4661638777        4.0238322532        1.0434783693
 C         -0.6820164786        4.4387190475       -0.4129856148
 H         -1.7188217009        4.7701235774       -0.4989474557
 H         -0.0451469967        5.2931326955       -0.6462792934
 C         -0.4410380545        3.3162692673       -1.4319127805
 H         -0.4800309267        2.3493232561       -0.9250444982
 H         -1.2463199184        3.3212444602       -2.1709506649
 C          0.8730394838        3.4242391005       -2.2058267850
 H          0.9630748141        2.5431169390       -2.8463258192
 H          0.8494221975        4.3089593610       -2.8472230545
 C          2.1280664452        3.4981783440       -1.3282605434
 H          3.0007301614        3.3521936907       -1.9702977997
 H          2.2001979963        4.4785217880       -0.8570847349
 H         -0.9872965561        3.0810874705        1.2316208317
 H         -0.9078764919        4.7875323639        1.6884614515
 H          1.0449339030        3.8022244779        2.5543451922
 H          1.5773547766        4.7261244956        1.1374267212
 O          1.6462228300        1.6216765192        1.8858760066
 C          2.1288689531        0.3463789005        1.6101104779
 O          2.0504356394       -0.4319219778        2.5796074610
 O          3.1742033316        0.9224238303       -1.8068793519
 C          3.1017047208       -1.2812664129       -0.0985526277
 C          1.9412721490       -1.9359503134       -0.8080991056
 C          2.0958635751       -2.5487547081       -2.0455120115
 C          0.9994926173       -3.0634052737       -2.7160549002
 C         -0.2711610431       -2.9468776655       -2.1827909533
 C         -0.4342444484       -2.3418981790       -0.9408113600
 C          0.6719644538       -1.8728278271       -0.2504715825
 H          0.5280141164       -1.4166470845        0.7179444231
 N         -1.7033152056       -2.1881998933       -0.3627632808
 S         -1.9831854744       -0.7845670714        0.5434982366
 O         -1.2551614504        0.3281595705       -0.0179147266
 O         -1.7475599043       -1.0859068073        1.9334130803
 C         -3.7332689308       -0.5652401919        0.2760041839
 C         -4.1637618214        0.3628648850       -0.6527519015
 C         -5.5245048122        0.5073434100       -0.8748657688
 C         -6.4257449294       -0.2769009402       -0.1708266682
 C         -5.9784258567       -1.2039235821        0.7592158942
 C         -4.6196267066       -1.3522292327        0.9874274906
 H         -4.2246841897       -2.0499501219        1.7075165659
 H         -6.6820863915       -1.8094234393        1.3072132542
 H         -7.4838164210       -0.1625878521       -0.3455278786
 H         -5.8746171148        1.2300235380       -1.5940926340
 H         -3.4248590215        0.9542280805       -1.1697837059
 H         -2.4609847838       -2.3900662473       -1.0004821883
 H         -1.1309075088       -3.3146339329       -2.7218533922
 H          1.1324797621       -3.5353715858       -3.6776543926
 H          3.0777617403       -2.5951415097       -2.4930273684
 H          3.8895805904       -1.1089737197       -0.8502666293
 C          3.7009788205       -2.1407608612        1.0012125894
 C          2.9732751560       -3.2859012766        1.6320687464
 C          4.1172327600       -3.5512440700        0.7026559520
 H          5.0458754503       -3.9138974184        1.1160235850
 H          3.8827524413       -3.9419804158       -0.2759220518
 H          3.1095370080       -3.4397759160        2.6915236973
 H          1.9718356066       -3.5010161186        1.2922732647
 H          4.3485497333       -1.5667978566        1.6556886859
