  62
        -98.93751055
 C         -1.7772132395       -0.9650123522        0.3519216818
 C         -2.4128746711       -0.2927823942       -0.7192973486
 C         -3.5169552096        0.6081267764       -0.3490691465
 C         -3.8285123947        0.7680296533        0.9499770651
 C         -4.9754827860        1.5819863799        1.4781193348
 C         -6.2968843067        0.8084140850        1.2945613491
 C         -7.2787890502        1.4597548950        0.3205199158
 H         -8.0628367666        0.7293881035        0.1096964364
 H         -7.7489327939        2.3155814096        0.8095140772
 C         -6.6822787754        1.9469946378       -1.0035957754
 H         -6.1866554832        2.9071508013       -0.8520697099
 H         -7.5195307715        2.1330279339       -1.6796765066
 C         -5.6987610305        0.9902019120       -1.6899191407
 H         -5.8831408508       -0.0385539597       -1.3797603929
 H         -5.8774482988        1.0347358863       -2.7661534559
 C         -4.2128734846        1.3307271180       -1.4690337754
 H         -3.6530547618        1.0553502866       -2.3679562627
 H         -4.1016392679        2.4102361023       -1.3328178404
 H         -6.7933705576        0.7022885717        2.2602728814
 H         -6.0579816054       -0.2004847240        0.9517458462
 H         -4.7856275919        1.7640652562        2.5361998395
 H         -5.0164897940        2.5386642596        0.9619764475
 O         -3.1656807914        0.1344503575        1.9529661691
 C         -2.1277668782       -0.7428534010        1.6824039944
 O         -1.5987278883       -1.2441143895        2.6958943881
 H          0.4107695737        0.4015949480        0.7652792657
 C          0.9154675810       -0.0038643200       -0.1035112363
 C          0.4935519751       -1.2227940250       -0.6210575430
 C          1.1614984862       -1.7393077175       -1.7231663368
 C          2.1996396331       -1.0340568627       -2.3084307755
 C          2.6003687127        0.1893019994       -1.8054117712
 C          1.9523571892        0.7051271599       -0.6894863271
 N          2.3630448676        1.9385416952       -0.1566356093
 S          4.0047832820        2.2194841575        0.0015298640
 O          4.1246363843        3.1558375484        1.0972149451
 O          4.5458226552        2.6582257054       -1.2607997997
 C          4.7122498260        0.6420482283        0.4434434040
 C          5.6546223345        0.0548997496       -0.3759393648
 C          6.1673433586       -1.1843798485       -0.0271095065
 C          5.7276663813       -1.8133586211        1.1270711478
 C          4.7826756902       -1.2087780065        1.9421758337
 C          4.2684033648        0.0309553241        1.5995015996
 H          3.5352848197        0.5277144055        2.2151918009
 H          4.4406211740       -1.6986360003        2.8398375470
 H          6.1227573035       -2.7803432946        1.3955219491
 H          6.9035260893       -1.6560891710       -0.6576640361
 H          5.9654728045        0.5778911134       -1.2655859777
 H          1.8592074600        2.2173670965        0.6718189762
 H          3.3934061758        0.7587729843       -2.2620944472
 H          2.7012983595       -1.4417563151       -3.1725086730
 H          0.8633180044       -2.6902846448       -2.1321369346
 C         -0.6436057497       -1.9350075029        0.0715765812
 H         -0.2825081367       -2.2697616628        1.0552362562
 C         -1.1610070309       -3.1365540712       -0.6915896963
 C         -0.5089497066       -4.4753324958       -0.5258022300
 C         -1.8628147290       -4.2230510129        0.0645820219
 H         -2.7220130995       -4.6948348723       -0.3881516180
 H         -1.9433038727       -4.1085566006        1.1361292457
 H         -0.4404732988       -5.1258244394       -1.3846140869
 H          0.3314668969       -4.5424224646        0.1481720585
 H         -1.5536807236       -2.8720293411       -1.6665002795
 O         -2.0769017010       -0.4354942343       -1.9234048461
