  62
        -98.94487549
 C         -2.6416698926       -0.3179368597        0.0028497012
 C         -2.4519119526       -1.4341776848       -0.8448857482
 C         -1.7671282990       -2.5837384922       -0.2463578499
 C         -1.3715961339       -2.5283012578        1.0387987543
 C         -0.6148052968       -3.5990980453        1.7760039907
 C          0.9003868928       -3.5374225228        1.5327958425
 C          1.3582786863       -4.0513016455        0.1663004133
 H          2.4394167701       -4.1934232717        0.2241842855
 H          0.9106621188       -5.0274750361       -0.0252274170
 C          1.0474350027       -3.0991037557       -0.9973316381
 H          0.8462928987       -2.1019421201       -0.5964121280
 H          1.9246040638       -3.0167965682       -1.6447913901
 C         -0.1204744128       -3.5356112682       -1.8827541583
 H          0.1388394823       -4.4638030522       -2.3974082993
 H         -0.2834320698       -2.7647625583       -2.6407595132
 C         -1.4427287353       -3.7476849593       -1.1347274227
 H         -2.2430423476       -3.8331103259       -1.8742681000
 H         -1.4033322032       -4.6682617696       -0.5533160962
 H          1.2263333089       -2.5011971569        1.6588374668
 H          1.3820155002       -4.1392059362        2.3072693171
 H         -0.8011889188       -3.4367340524        2.8396754498
 H         -0.9949209173       -4.5834408554        1.5004297391
 O         -1.6273216936       -1.4604524522        1.8390137134
 C         -2.2115025684       -0.3120916832        1.3310661862
 O         -2.3141260709        0.6201004421        2.1525603010
 H         -0.6476743595        0.6117343076       -1.2746135739
 C         -0.7959391173        1.6058088650       -0.8690311971
 C         -2.0737143862        2.0022704096       -0.4929139333
 C         -2.2384291652        3.2834277972        0.0152429582
 C         -1.1456647311        4.1179739711        0.1866767458
 C          0.1320112781        3.6917560493       -0.1286709496
 C          0.2992775553        2.4253573013       -0.6685948989
 N          1.6158997309        1.9368485816       -0.9226855643
 S          2.1694844759        1.1498633600        0.4794306136
 O          1.4183896414       -0.0667142247        0.7020812889
 O          2.1730155093        2.1141820506        1.5495468144
 C          3.8459386116        0.7526004239        0.0187383794
 C          4.1896982019       -0.5542436750       -0.2662398558
 C          5.4921787382       -0.8357945615       -0.6490865266
 C          6.4206111961        0.1895473568       -0.7431571956
 C          6.0591545797        1.4974729586       -0.4544708036
 C          4.7596572178        1.7853120409       -0.0699167249
 H          4.4332452709        2.7829957957        0.1715779485
 H          6.7845187515        2.2915873315       -0.5274976477
 H          7.4329857571       -0.0323959447       -1.0416869104
 H          5.7757183541       -1.8520023014       -0.8712634936
 H          3.4351624508       -1.3194240897       -0.1750824372
 H          1.5961904546        1.2352700052       -1.6545198519
 H          0.9957795999        4.3094254437        0.0536250324
 H         -1.2904201373        5.1051027378        0.5988330392
 H         -3.2206553047        3.6205855956        0.3044943506
 C         -3.1760142181        0.9747767003       -0.5920633876
 H         -3.3639451897        0.7565535995       -1.6539733867
 C         -4.4718757700        1.4020957381        0.0595128586
 C         -5.4533519417        2.2440152149       -0.6988108082
 C         -5.7580195355        0.8033228549       -0.4228014297
 H         -6.5188417233        0.5647059445        0.3049183997
 H         -5.7009753432        0.1006184865       -1.2411799614
 H         -6.0100402748        2.9962301302       -0.1608175724
 H         -5.1964095268        2.5223965948       -1.7095987179
 H         -4.3643319169        1.5692451594        1.1252483793
 O         -2.8157180558       -1.4574980676       -2.0531321618
