  62
        -98.93033966
 C          2.3976380214        0.8848948244        0.2169065974
 C          3.6503346209        1.0490614213        0.8574361193
 C          4.8430237511        0.6210048401        0.1059785558
 C          4.6823032540        0.0804729852       -1.1140367994
 C          5.7477194431       -0.4720593236       -2.0201102165
 C          5.9150319425       -1.9856199721       -1.8028592905
 C          6.8948842274       -2.3738748718       -0.6962178802
 H          6.8219726788       -3.4557133034       -0.5628012227
 H          7.9126921085       -2.1522894290       -1.0240986778
 C          6.6582514465       -1.6952102674        0.6554590546
 H          5.5900556149       -1.6868368567        0.8805957989
 H          7.1445093222       -2.2998624547        1.4235763291
 C          7.2178439440       -0.2663002512        0.7196672938
 H          7.8447170121       -0.1631078136        1.6078701248
 H          7.8684052856       -0.0993561148       -0.1385892309
 C          6.1625313938        0.8465859198        0.7926561778
 H          6.5986472274        1.7768723230        0.4130889854
 H          5.9004093667        1.0303195943        1.8395065275
 H          4.9286275355       -2.4037881964       -1.5854502436
 H          6.2621263153       -2.4369442124       -2.7345595933
 H          6.6875014961        0.0526630937       -1.8760298700
 H          5.4034102852       -0.3042358552       -3.0427069583
 O          3.4575869838       -0.0892179909       -1.6819838863
 C          2.2881832763        0.2952299641       -1.0431058645
 O          1.2563158036        0.0598066248       -1.6976077536
 O          3.7676805579        1.5264670734        2.0184215146
 C          1.1573246063        1.3055146577        0.9845259281
 C          0.1241039479        0.2077598919        0.9397191547
 C          0.4389955929       -1.0229505634        1.5103547505
 C         -0.4664293632       -2.0657124517        1.4904596693
 C         -1.7093511764       -1.9043083091        0.9040148623
 C         -2.0360878431       -0.6807235113        0.3374152294
 C         -1.1256568097        0.3694735326        0.3650115501
 H         -1.3871688466        1.3081459566       -0.0980752186
 N         -3.2907919581       -0.5158933022       -0.2735793500
 S         -4.6314227776       -1.1626047626        0.5229523679
 O         -4.5421886785       -0.8922449166        1.9405667185
 O         -4.7591201064       -2.5511315483        0.1562338334
 C         -5.9545341782       -0.2183874360       -0.2075496302
 C         -6.4131980273        0.9114938378        0.4430558180
 C         -7.4233713834        1.6583293925       -0.1422711889
 C         -7.9524248637        1.2664791553       -1.3628709087
 C         -7.4816783777        0.1298878866       -2.0035721804
 C         -6.4724102761       -0.6221265328       -1.4235215967
 H         -6.0813215211       -1.5163095471       -1.8801674122
 H         -7.8975032436       -0.1726787677       -2.9510581261
 H         -8.7386807266        1.8492792261       -1.8161776598
 H         -7.7934448277        2.5406132993        0.3547031926
 H         -5.9789207472        1.1728440368        1.3947824480
 H         -3.4530046485        0.4355427392       -0.5726504609
 H         -2.4284051229       -2.7076930080        0.8803100640
 H         -0.2048032486       -3.0151075827        1.9340705939
 H          1.4119998904       -1.1532798360        1.9654836105
 H          1.5038603795        1.3955544685        2.0279410720
 C          0.6115751818        2.6713993759        0.5966185591
 C          1.5174546854        3.7390008346        0.0619226061
 C          0.4862127523        3.1170686098       -0.8286942819
 H         -0.3727116851        3.7113697800       -1.1054520155
 H          0.8103172520        2.4331714091       -1.5971023252
 H          1.3668680130        4.7544968170        0.3961423237
 H          2.5541925314        3.4808341368       -0.0977340639
 H         -0.1659175597        3.0011502674        1.2796332475
