  62
        -98.94947778
 C         -1.0143278774       -1.6924778556       -0.2806891221
 C         -2.3001211044       -1.5422520736        0.2867405942
 C         -3.0863109927       -0.4047745645       -0.2026823494
 C         -2.5630331442        0.4170837721       -1.1302740014
 C         -3.2305556342        1.6345381226       -1.7105748067
 C         -3.0988757030        2.8867388819       -0.8318445198
 C         -3.9842211215        2.9028510633        0.4148366005
 H         -3.9822917140        3.9267051177        0.7944927374
 H         -5.0108550822        2.6579222804        0.1390012243
 C         -3.5084458353        1.9669632742        1.5347614239
 H         -2.4579417587        1.7101401155        1.3741775316
 H         -3.5553476581        2.4941211105        2.4911171628
 C         -4.3298791050        0.6862660295        1.6866951503
 H         -5.3412743399        0.9388018774        2.0149437391
 H         -3.8659828671        0.0749618885        2.4651727402
 C         -4.4310323529       -0.1628986827        0.4136920656
 H         -4.8490625995       -1.1354559588        0.6867530037
 H         -5.0975987936        0.3149511272       -0.3042163389
 H         -2.0561255067        2.9966636905       -0.5216673545
 H         -3.3580721322        3.7502668026       -1.4494026090
 H         -2.7448625566        1.8302949970       -2.6690106180
 H         -4.2856328160        1.4270450592       -1.8924355809
 O         -1.3349810582        0.2189646001       -1.6774953785
 C         -0.5212213896       -0.8207264896       -1.2520771533
 O          0.5913633666       -0.8657753344       -1.8094918114
 O         -2.7670269684       -2.3196929102        1.1644239330
 C         -0.1017816123       -2.7884469009        0.2314730040
 C          1.1926313242       -2.2095053807        0.7520733571
 C          2.3846674004       -2.9256303253        0.7517761430
 C          3.5469640307       -2.3563447169        1.2416720266
 C          3.5565273298       -1.0561072827        1.7137668995
 C          2.3706421693       -0.3319504412        1.7167216823
 C          1.2008180500       -0.9214369759        1.2682172409
 H          0.2885066562       -0.3452805837        1.2993291057
 N          2.3224889071        1.0022691741        2.1621548011
 S          1.5309258569        2.1332986270        1.2196419304
 O          2.0083735861        3.4065712206        1.7236269243
 O          0.1038815758        1.9409093682        1.2848872284
 C          2.1100262851        1.9298152466       -0.4555105369
 C          1.2252163465        2.1570978623       -1.4874534643
 C          1.6707809570        2.0525447528       -2.7944139235
 C          2.9915952609        1.7222446804       -3.0467809009
 C          3.8728524218        1.5043549909       -1.9997383214
 C          3.4330343548        1.6138766794       -0.6911620600
 H          4.1052154501        1.4523212409        0.1353736868
 H          4.9004381477        1.2449972039       -2.1982982562
 H          3.3344310766        1.6305281411       -4.0654282914
 H          0.9805895094        2.2157397774       -3.6065311410
 H          0.1994884970        2.3920522958       -1.2525251254
 H          3.2021735309        1.3703025309        2.4951148288
 H          4.4680397832       -0.6068724263        2.0781333317
 H          4.4627677835       -2.9272952523        1.2401588189
 H          2.4018057292       -3.9315217076        0.3647841360
 H         -0.6390920674       -3.2509213822        1.0739744706
 C          0.1201220297       -3.8404558212       -0.8383908025
 C          0.2459033676       -5.2890162232       -0.4740478264
 C         -0.9929247332       -4.7926784609       -1.1547660555
 H         -1.1638510595       -5.0634898443       -2.1857516867
 H         -1.8978301601       -4.7035497698       -0.5712880806
 H          0.9269162829       -5.9056408516       -1.0412087886
 H          0.1736665687       -5.5526327909        0.5704717932
 H          0.7095312395       -3.4659687382       -1.6677377168
