  62
        -98.94014655
 C         -2.4331904897       -0.9869376820        0.0341835937
 C         -3.6852841367       -0.8976831280        0.6969360055
 C         -4.6951802753       -0.0419564891        0.0656627098
 C         -4.3986546272        0.6072907487       -1.0743262162
 C         -5.3262076200        1.4996337179       -1.8534789261
 C         -5.3813547431        2.9439696761       -1.3372422074
 C         -6.1252596767        3.1338153503       -0.0147366765
 H         -6.2762767008        4.2071149546        0.1166361683
 H         -7.1110614429        2.6728095304       -0.0840672377
 C         -5.3838250844        2.5865513762        1.2130213776
 H         -4.3318188488        2.4294915017        0.9633911503
 H         -5.4143238427        3.3259660495        2.0165002439
 C         -5.9593155400        1.2856277706        1.7730746794
 H         -6.9693666002        1.4632787188        2.1489644090
 H         -5.3376631556        0.9703691651        2.6149683711
 C         -6.0100647603        0.1305611858        0.7643067807
 H         -6.2213768422       -0.7922613649        1.3102059255
 H         -6.8066346104        0.2985144566        0.0397005873
 H         -4.3598390289        3.3182802124       -1.2380268142
 H         -5.8824214386        3.5436155271       -2.1006686549
 H         -4.9532066458        1.5149249832       -2.8798604777
 H         -6.3298705808        1.0734218486       -1.8546449724
 O         -3.1846247068        0.5069600240       -1.6740580100
 C         -2.1639236710       -0.2671868538       -1.1315129773
 O         -1.1063158571       -0.2213995813       -1.7854938421
 O         -3.9465210572       -1.5072221660        1.7680003430
 C         -1.3644109302       -1.8483919667        0.6842485912
 C         -0.0783516966       -1.0733026226        0.8112481010
 C          0.0141604701       -0.0713296836        1.7730409648
 C          1.1694769746        0.6745653539        1.9079565012
 C          2.2553551990        0.4423407647        1.0820183147
 C          2.1727844334       -0.5524301689        0.1177222255
 C          1.0151109878       -1.3101875606       -0.0058940082
 H          0.9561721590       -2.0683006765       -0.7715302465
 N          3.2607129224       -0.7748523229       -0.7406419814
 S          4.7998540893       -0.9067360446       -0.0966924305
 O          5.5511311832       -1.6784354345       -1.0628491011
 O          4.7673583414       -1.4261721600        1.2512699444
 C          5.4119263976        0.7653770070       -0.0909152792
 C          5.9264224426        1.3067002666        1.0707609910
 C          6.4111816065        2.6052683693        1.0480158619
 C          6.3744021060        3.3348841239       -0.1302289515
 C          5.8557403886        2.7760697464       -1.2889225085
 C          5.3703810624        1.4783170549       -1.2730004163
 H          4.9611547697        1.0085824619       -2.1519522561
 H          5.8279501538        3.3467294776       -2.2032723124
 H          6.7518158112        4.3451944608       -0.1461040599
 H          6.8144716573        3.0416969673        1.9476701010
 H          5.9298314553        0.7037217683        1.9648444238
 H          3.0897730319       -1.4695111325       -1.4522463118
 H          3.1581900013        1.0234595883        1.1767385342
 H          1.2255999400        1.4475149545        2.6594611643
 H         -0.8374922248        0.1185018696        2.4122194505
 H         -1.7490514607       -2.0327017166        1.7009917705
 C         -1.1769982389       -3.2163514778        0.0453621558
 C         -2.3517810688       -3.9687834914       -0.5022742021
 C         -1.2916382032       -3.4577911224       -1.4288809903
 H         -0.6202211275       -4.1740524860       -1.8807871854
 H         -1.5207892730       -2.6163478375       -2.0634198814
 H         -2.4134427682       -5.0315408605       -0.3228676902
 H         -3.3085399489       -3.4672155435       -0.4966309771
 H         -0.4325206915       -3.8045441901        0.5748132751
