  62
        -98.94802840
 C          1.2612388005        1.0391589493        0.0024071894
 C          1.6264564702       -0.0414404308        0.8392941595
 C          2.6588536799       -0.9431799612        0.3143294595
 C          3.1365858199       -0.7411758614       -0.9271379305
 C          4.2173646396       -1.5584510019       -1.5723316305
 C          5.6048365098       -0.9601181823       -1.3005316807
 C          5.8583623700       -0.6318746823        0.1708054793
 H          5.1837463503        0.1706807280        0.4772918793
 H          6.8763277701       -0.2437471626        0.2463556392
 C          5.6933211996       -1.8236787722        1.1241081794
 H          6.5307134497       -1.8300939624        1.8250096693
 H          5.7345968593       -2.7568845122        0.5611922994
 C          4.4129553997       -1.7942411317        1.9607633695
 H          4.3213911100       -0.8237572116        2.4548901894
 H          4.5000643895       -2.5535696316        2.7424189995
 C          3.1106893195       -2.0711664913        1.1984714396
 H          2.3147760895       -2.2109619310        1.9362490896
 H          3.2060914592       -2.9954891914        0.6243506296
 H          5.7024902701       -0.0386752324       -1.8791679708
 H          6.3593248195       -1.6652379726       -1.6539992907
 H          4.0398375595       -1.5723673719       -2.6491952305
 H          4.1673176292       -2.5783581418       -1.1953299705
 O          2.7163105002        0.2708908886       -1.7281656206
 C          1.7722546105        1.1873311190       -1.2866519306
 O          1.4795307808        2.0649957890       -2.1208615607
 O          1.1094662202       -0.2425628305        1.9722396095
 C          0.2122855609        2.0211716397        0.4872449994
 C         -1.0283630692        1.9461886700       -0.3695189705
 C         -1.8050471988        3.0538488203       -0.6869461805
 C         -2.9497446689        2.9086774106       -1.4516645605
 C         -3.3602519794        1.6632216907       -1.8917943803
 C         -2.5933297397        0.5483123105       -1.5738051603
 C         -1.4378661896        0.7011664101       -0.8254851704
 H         -0.8358143199       -0.1688063801       -0.6141771503
 N         -2.9667118402       -0.7390167894       -1.9883677502
 S         -2.6866022306       -2.0372619595       -0.9711819501
 O         -1.2916363807       -2.4015482799       -0.9877231702
 O         -3.6068258209       -3.0544440092       -1.4351988300
 C         -3.1888639303       -1.4652495992        0.6424871099
 C         -2.2597924001       -1.1991763694        1.6266868298
 C         -2.6999353099       -0.7038504292        2.8447239598
 C         -4.0513973798       -0.4854602787        3.0581577099
 C         -4.9744038900       -0.7665824385        2.0616885499
 C         -4.5409094602       -1.2578718487        0.8419987800
 H         -5.2273061703       -1.4995315185        0.0467531900
 H         -6.0260815099       -0.6011406781        2.2311046700
 H         -4.3859991396       -0.0964120985        4.0068419699
 H         -1.9733777398       -0.4873142394        3.6118043597
 H         -1.2104801602       -1.3692952098        1.4419471498
 H         -3.8666020102       -0.7996871392       -2.4411968601
 H         -4.2563114594        1.5527938910       -2.4827579403
 H         -3.5373339586        3.7788427808       -1.7015713405
 H         -1.5093978985        4.0314222302       -0.3430509206
 H         -0.0622017192        1.6775099598        1.4969413595
 C          0.7909458714        3.4174099595        0.5894322393
 C          0.3167038318        4.3601808397        1.6537300792
 C          1.6798182616        3.7461356792        1.7505440592
 H          2.5442062018        4.3696945389        1.5783048891
 H          1.8418856913        2.9702388792        2.4847384593
 H          0.2469134521        5.4111739197        1.4170298192
 H         -0.4447577683        4.0070496900        2.3324427493
 H          1.0604877215        3.8260483493       -0.3778474108
