  62
        -98.94355095
 C         -1.8368799844       -0.3084604554       -0.2662224351
 C         -2.9758176968       -0.5775778637       -1.0611758058
 C         -4.2625056410       -0.5999658663       -0.3530858232
 C         -4.2847027834       -0.3895546096        0.9760711324
 C         -5.5292640890       -0.3352128053        1.8130809427
 C         -6.0703070255        1.0979900134        1.9125683373
 C         -6.1893492104        1.8083962890        0.5642368791
 H         -6.6087750673        2.7987082738        0.7542631153
 H         -5.1895571931        1.9567730170        0.1499351097
 C         -7.0595262558        1.0741512295       -0.4653441601
 H         -7.6926238566        0.3427469970        0.0383221542
 H         -7.7206323285        1.7985241546       -0.9457821716
 C         -6.2738401632        0.3810456930       -1.5800388804
 H         -5.5707611083        1.0882619285       -2.0272974142
 H         -6.9799911804        0.0844773251       -2.3602562827
 C         -5.4961471730       -0.8746997331       -1.1664015047
 H         -6.1609564359       -1.5622968793       -0.6394318764
 H         -5.1486517018       -1.3658395081       -2.0802446770
 H         -7.0483986131        1.0645875048        2.3959533411
 H         -5.3969033957        1.6786359340        2.5470837429
 H         -6.2823993410       -0.9894892008        1.3782098506
 H         -5.2853846750       -0.6924685243        2.8149701982
 O         -3.1669752271       -0.1534220783        1.7091738611
 C         -1.9163964374       -0.0996422355        1.1108371628
 O         -0.9792787166        0.1333318004        1.8963403217
 H          2.1853903029       -0.0177293142       -0.2449602991
 C          1.7834026470       -0.9961152411       -0.0416848627
 C          0.4565900911       -1.2796998350       -0.3253447765
 C         -0.0201925703       -2.5619758936       -0.0638467147
 C          0.8025211884       -3.5237618101        0.4878783503
 C          2.1257482492       -3.2351081680        0.7725779758
 C          2.6172791714       -1.9652258431        0.5005825217
 N          3.9502583460       -1.6368926729        0.7863008685
 S          4.8268721835       -0.6895339181       -0.2764466149
 O          4.4332587975       -0.9198387430       -1.6467890639
 O          6.2109066232       -0.9737783717        0.0400006832
 C          4.4691231720        0.9899725611        0.1931094441
 C          4.4169785285        1.9576920241       -0.7905515105
 C          4.1896284796        3.2754447956       -0.4250445041
 C          4.0187394337        3.6004747021        0.9116216181
 C          4.0754629808        2.6167572368        1.8873123252
 C          4.3075866426        1.2983702993        1.5291891366
 H          4.3531512277        0.5103665331        2.2621801204
 H          3.9380890290        2.8724515447        2.9256836196
 H          3.8384930389        4.6257215479        1.1942204584
 H          4.1450603997        4.0415718599       -1.1830040259
 H          4.5428903295        1.6586847907       -1.8190625462
 H          4.5056747073       -2.3922789208        1.1603990388
 H          2.7712956540       -3.9858922237        1.2026068932
 H          0.4138618710       -4.5101522304        0.6925379731
 H         -1.0514528876       -2.7932096295       -0.2939181492
 C         -0.4735902293       -0.2569390863       -0.9294439385
 H         -0.6475378557       -0.5380377926       -1.9796017862
 C          0.0721944843        1.1554450152       -0.8887456554
 C          0.9731647184        1.6551504277       -1.9768848939
 C         -0.4365572777        2.1541955972       -1.8831539058
 H         -0.6041631452        3.1691946464       -1.5559879307
 H         -1.1541119866        1.8053271382       -2.6116030789
 H          1.2222943922        0.9712959094       -2.7745819999
 H          1.7732320307        2.3288266605       -1.7097633092
 H          0.2510279521        1.5013563897        0.1234148790
 O         -2.9178926752       -0.7950617934       -2.3021421937
