  62
        -98.94621804
 C         -2.8279864692       -0.8804468015        0.2037468696
 C         -2.4683646197       -0.1557893111       -0.9600824503
 C         -2.8336354004        1.2660979887       -0.9561166900
 C         -3.5560232105        1.7695118982        0.0612440101
 C         -3.9773184213        3.2046294279        0.2215284404
 C         -2.9121528916        4.0759671084        0.9028018004
 C         -1.6835609919        4.3910161791        0.0472033203
 H         -2.0049327222        4.8131478791       -0.9054501896
 H         -1.1147093122        5.1617752193        0.5709354504
 C         -0.7613037013        3.1901661796       -0.2119220200
 H         -0.9875423508        2.3934181794        0.5025826399
 H          0.2818738686        3.4720242301       -0.0430895200
 C         -0.8488010112        2.6203502598       -1.6282180900
 H         -0.1530014807        1.7786866302       -1.6977193003
 H         -0.5208925316        3.3776454201       -2.3439982500
 C         -2.2505168310        2.1347456792       -2.0283516500
 H         -2.8992640614        2.9862143489       -2.2324199698
 H         -2.1588163208        1.5339750194       -2.9360750301
 H         -2.5955434213        3.5822002384        1.8248033403
 H         -3.3869961921        5.0203731281        1.1778188406
 H         -4.8718027312        3.2021206374        0.8478846105
 H         -4.2308532716        3.6273351979       -0.7501620595
 O         -3.9929679700        1.0047787078        1.0978919500
 C         -3.5777833193       -0.3133799920        1.2317011898
 O         -3.9377629489       -0.8615306224        2.2937479097
 O         -1.8524838195       -0.6598240506       -1.9335047405
 C         -2.2973089184       -2.2896274112        0.3939780693
 C         -0.7929124484       -2.2655028905        0.2448657891
 C         -0.0754628580       -3.2399678500       -0.4359486411
 C          1.2967004619       -3.1263578192       -0.5839063712
 C          1.9821063314       -2.0434368990       -0.0648134411
 C          1.2759723710       -1.0692199695        0.6282136591
 C         -0.0926277789       -1.1986521702        0.7946636392
 H         -0.6357018893       -0.4314934905        1.3354329794
 N          1.9585397705        0.0481831108        1.1498797592
 S          2.8004014299        0.9923725414        0.0363704893
 O          2.8122188092        2.3253995213        0.5991511895
 O          2.2617447898        0.8564434314       -1.2954261807
 C          4.4480420402        0.3204074323        0.1003113490
 C          5.0247690404       -0.1983786273       -1.0420951412
 C          6.3073958706       -0.7194227566       -0.9677621514
 C          6.9861716608       -0.7123158865        0.2411463185
 C          6.3934180006       -0.1854693369        1.3791888887
 C          5.1122463603        0.3378944324        1.3111929589
 H          4.6167439002        0.7608958920        2.1691008690
 H          6.9247335007       -0.1811838068        2.3173100386
 H          7.9834956810       -1.1191945460        0.2965827683
 H          6.7698151307       -1.1288139662       -1.8515256115
 H          4.4556994802       -0.1864340674       -1.9581885111
 H          1.3662534002        0.6437259004        1.7116996394
 H          3.0467557313       -1.9390247784       -0.1975616912
 H          1.8385477422       -3.8879789689       -1.1235852014
 H         -0.5937558676       -4.0811019602       -0.8666030412
 H         -2.5434297081       -2.5767511415        1.4270548893
 C         -2.9792836180       -3.2519961814       -0.5558861008
 C         -3.1870357572       -4.6836786616       -0.1648443910
 C         -4.3531315277       -3.7443324722       -0.2168086807
 H         -5.0728728578       -3.8543025924       -1.0139127406
 H         -4.7825494278       -3.4047081526        0.7147304594
 H         -3.1099478969       -5.4429191314       -0.9284442311
 H         -2.8319843670       -4.9942842316        0.8061463689
 H         -2.7690543983       -3.0258552812       -1.5950131708
