  62
        -98.94397911
 C          0.8710377995        1.4875003803        0.1118819999
 C          1.1019262097        0.2932233003       -0.6141277002
 C          2.2499631400       -0.5123405593       -0.1638884403
 C          2.8901085801       -0.1820380791        0.9706193395
 C          4.0839088004       -0.9004918988        1.5275352393
 C          5.3906739802       -0.2625351685        1.0349437191
 C          5.4296628498       -0.0226650285       -0.4745290409
 H          4.6809666996        0.7287802113       -0.7359769608
 H          6.4071826297        0.4036384718       -0.7107674011
 C          5.2026522300       -1.2802022486       -1.3252218008
 H          5.9349874999       -1.2901573084       -2.1353215110
 H          5.3757558904       -2.1717498185       -0.7216736508
 C          3.8199108799       -1.3690226590       -1.9749744006
 H          3.8477840000       -2.1656182190       -2.7233198506
 H          3.6013918096       -0.4360543690       -2.5010443206
 C          2.6551486502       -1.6753329693       -1.0239002104
 H          2.9036884605       -2.5437521492       -0.4127121304
 H          1.7787471701       -1.9180724295       -1.6313240502
 H          6.2221573904       -0.9077574382        1.3240715790
 H          5.5172601400        0.6999662416        1.5359242691
 H          4.0478273206       -0.8362883588        2.6161369894
 H          4.0442794307       -1.9462401288        1.2306802094
 O          2.5437517000        0.8929321608        1.7234827196
 C          1.5798342596        1.7810710105        1.2818806597
 O          1.4362774295        2.7823174205        2.0114353597
 O          0.4151887496       -0.0963680399       -1.5953111200
 C         -0.1637901709        2.5308528100       -0.2855830900
 C         -1.5093800107        2.1895911596        0.3055880103
 C         -2.0847760107        3.0119329495        1.2675340303
 C         -3.3027040005        2.6841648692        1.8353067206
 C         -3.9593217003        1.5253030090        1.4645009407
 C         -3.3885901602        0.6936256091        0.5052883406
 C         -2.1764963204        1.0343465994       -0.0785947196
 H         -1.7439804204        0.3853865595       -0.8241516297
 N         -4.0328786199       -0.4924834511        0.1397894908
 S         -3.3060566697       -1.7465543309       -0.6679673293
 O         -3.0326765101       -1.3742815709       -2.0325876294
 O         -4.2391691594       -2.8438004812       -0.5027464991
 C         -1.7957821695       -2.1856464305        0.1800653104
 C         -1.5046466294       -1.7363239603        1.4514563104
 C         -0.3428991191       -2.1765160400        2.0671799502
 C          0.4888401810       -3.0747926798        1.4201816700
 C          0.1727350409       -3.5324358899        0.1508686101
 C         -0.9733263293       -3.0770884102       -0.4784689997
 H         -1.2450392394       -3.3900837703       -1.4740385397
 H          0.8149879910       -4.2373027498       -0.3522682600
 H          1.3865637012       -3.4185868495        1.9093386599
 H         -0.0938791791       -1.8145139999        3.0522943601
 H         -2.1601655895       -1.0424317305        1.9521955205
 H         -4.8003831698       -0.7877709613        0.7228787209
 H         -4.9035074901        1.2585368587        1.9137683109
 H         -3.7403457906        3.3306142791        2.5805904206
 H         -1.5596899109        3.9017412396        1.5816146802
 H          0.1722816690        3.4689711601        0.1778823699
 C         -0.2636824712        2.7500338399       -1.7815473500
 C         -0.7883538116        4.0593057398       -2.2862288199
 C          0.6636812584        3.7221397802       -2.4434180102
 H          1.0381611083        3.4871308202       -3.4284600102
 H          1.3770396984        4.2388446304       -1.8173472703
 H         -1.4156314418        4.0567171996       -3.1644510498
 H         -1.0576847617        4.8071483597       -1.5555738499
 H         -0.5244282910        1.8575110398       -2.3349567799
