  62
        -98.94431093
 C         -2.6540119902       -1.0899907907        0.1806106003
 C         -2.6879517302       -0.2781831111       -0.9793825600
 C         -3.4861879103        0.9494813489       -0.8710587105
 C         -4.1472955703        1.2213179593        0.2688351794
 C         -5.0232085103        2.4190199693        0.5198377390
 C         -4.2563351104        3.6721736796        0.9644193685
 C         -3.4316610904        4.3524137192       -0.1291623618
 H         -4.0639722205        4.5349098388       -0.9984287919
 H         -3.1236375305        5.3248878593        0.2600584878
 C         -2.1801241604        3.5717105491       -0.5551547516
 H         -1.9459906304        2.8196991194        0.2024514687
 H         -1.3257994605        4.2505820891       -0.6048551919
 C         -2.2942286104        2.8839235785       -1.9158801413
 H         -1.3704619604        2.3283849685       -2.0977194611
 H         -2.3950795105        3.6380526582       -2.6992760716
 C         -3.4670512904        1.9009218584       -2.0289103409
 H         -4.4096909304        2.4434774683       -2.0947850610
 H         -3.3343917504        1.3125008680       -2.9398457306
 H         -3.6044740203        3.4050372699        1.7998109485
 H         -4.9918931204        4.3898497197        1.3348449482
 H         -5.7136588503        2.1373459496        1.3178224191
 H         -5.6012501504        2.6438989489       -0.3767715611
 O         -4.1057813402        0.4017879097        1.3543431498
 C         -3.3374780801       -0.7525614702        1.3472932602
 O         -3.3446137401       -1.3819118498        2.4261410805
 O         -2.0839488302       -0.5596990815       -2.0457336199
 C         -1.8298306201       -2.3633063706        0.1805723908
 C         -0.3890571201       -2.0628828207       -0.1597960793
 C          0.3821296199       -2.8849321410       -0.9713604090
 C          1.7032801199       -2.5689446510       -1.2374331492
 C          2.2837125398       -1.4329578308       -0.7049476297
 C          1.5272194798       -0.6114388705        0.1206016800
 C          0.2076504198       -0.9368261904        0.3937739002
 H         -0.3778955402       -0.2954036602        1.0427177599
 N          2.1051826098        0.5527730598        0.6583617495
 S          3.5649385998        0.4022423102        1.4761526895
 O          3.7013011499       -0.9052911196        2.0756158201
 O          3.6097122398        1.5314413405        2.3796582091
 C          4.7933703598        0.6244349097        0.2070550494
 C          4.7454114797        1.7776815594       -0.5514801610
 C          5.6999728696        1.9694775691       -1.5375133711
 C          6.6819702797        1.0120748790       -1.7450628408
 C          6.7182810098       -0.1387191107       -0.9726512003
 C          5.7656368698       -0.3374116103        0.0146809198
 H          5.7500840399       -1.2189973501        0.6354564701
 H          7.4824431298       -0.8816326307       -1.1354295100
 H          7.4232945797        1.1641888388       -2.5135535209
 H          5.6749066096        2.8631426988       -2.1400838415
 H          3.9681292896        2.4977078194       -0.3565972613
 H          1.4598816498        1.1145483199        1.1943557293
 H          3.3085322998       -1.1773525108       -0.9190473898
 H          2.2876563199       -3.2142778412       -1.8752649690
 H         -0.0531386101       -3.7728906412       -1.3995101487
 H         -1.8616019000       -2.7497698502        1.2106621910
 C         -2.4618664701       -3.3854573310       -0.7429590588
 C         -2.3666906700       -4.8492015109       -0.4374653882
 C         -3.6715551300       -4.1320171109       -0.2698459984
 H         -4.4654768100       -4.3284375812       -0.9746193483
 H         -4.0193667800       -3.9248079605        0.7321750315
 H         -2.2682181600       -5.5424621012       -1.2592339279
 H         -1.8330260499       -5.1414271305        0.4544796219
 H         -2.4402489601       -3.0736115915       -1.7808292289
