  62
        -98.93038806
 C          2.4692395791        1.1947087628        0.4958809924
 C          3.3361361546        0.8572286453       -0.5724479742
 C          4.5015508940        0.0303749808       -0.2140941953
 C          4.6908190442       -0.3526194815        1.0601535219
 C          5.8467603923       -1.1519794607        1.6011593780
 C          5.9673252573       -2.6033667142        1.0977437743
 C          6.8925534623       -2.7784905334       -0.1128669712
 H          7.6099686892       -1.9570594582       -0.1283461445
 H          7.4701876570       -3.6960049416        0.0170655784
 C          6.1985307225       -2.8770988137       -1.4747477151
 H          6.9592008696       -2.7462863895       -2.2474946492
 H          5.7819192918       -3.8802982505       -1.5905797668
 C          5.0658527570       -1.8802601157       -1.7211307941
 H          4.7986762705       -1.9224762764       -2.7789072594
 H          4.1770000221       -2.1897879261       -1.1661058213
 C          5.3931697661       -0.4252807361       -1.3326778423
 H          6.4408655372       -0.3271965885       -1.0526594991
 H          5.1979705322        0.2382698100       -2.1774894997
 H          6.3729323845       -3.1905905611        1.9231988321
 H          4.9745257353       -2.9961003481        0.8797506705
 H          6.7742014979       -0.6161565683        1.3863396843
 H          5.7104597234       -1.1610865705        2.6845320256
 O          3.8323367034       -0.0050704302        2.0587119913
 C          2.7076085380        0.7564562114        1.8012808384
 O          2.0066643438        0.9887950047        2.8079023486
 O          3.1716737078        1.2194257174       -1.7645486615
 C          1.2194275102        2.0413922879        0.3177636361
 C          0.0426656280        1.1792447346       -0.0606419135
 C          0.0922502283        0.3287627474       -1.1610642311
 C         -1.0016054451       -0.4492996329       -1.4932787097
 C         -2.1598360234       -0.4028242263       -0.7365964559
 C         -2.2187139753        0.4386251837        0.3656720453
 C         -1.1205313032        1.2242688075        0.6933800165
 H         -1.1662452505        1.8708567116        1.5598579331
 N         -3.3846832992        0.4759039781        1.1476992963
 S         -4.8621190516        0.6807617552        0.3771743759
 O         -4.7136677051        1.4211530261       -0.8539718871
 O         -5.7307161274        1.2615125065        1.3773067450
 C         -5.4012432866       -0.9803206984        0.0328924608
 C         -5.7244703726       -1.3452775277       -1.2592786297
 C         -6.1516422008       -2.6415182402       -1.5023158129
 C         -6.2479689467       -3.5441645108       -0.4543801543
 C         -5.9219333135       -3.1608498891        0.8382024737
 C         -5.4955373017       -1.8663563986        1.0881102127
 H         -5.2359493414       -1.5286941063        2.0776544771
 H         -5.9982473654       -3.8657647066        1.6503923334
 H         -6.5794054199       -4.5525375745       -0.6458779827
 H         -6.4064939653       -2.9413770110       -2.5061386577
 H         -5.6296983242       -0.6109340969       -2.0433984661
 H         -3.3145645068        1.0704442192        1.9607247700
 H         -3.0128862967       -1.0099767237       -0.9918137290
 H         -0.9516545317       -1.1026415454       -2.3511940121
 H          0.9943880777        0.2908946586       -1.7525589979
 H          1.0144116679        2.4575637354        1.3170808550
 C          1.4263315862        3.2216772170       -0.6224282906
 C          0.7669700782        3.3558321054       -1.9586328808
 C          0.3220397924        4.2185820863       -0.8187302983
 H          0.5665266692        5.2699425919       -0.8317410808
 H         -0.6352982443        3.9938936603       -0.3710038008
 H          1.3435931589        3.8004088624       -2.7552221490
 H          0.1049690812        2.5708911090       -2.2880573983
 H          2.4311074124        3.6243420069       -0.5450560968
