  62
        -98.94382791
 C         -1.8184071312       -1.2872280596        0.0729116390
 C         -2.3252486912       -0.4916628401        1.1298882793
 C         -3.6700578213        0.0634170699        0.9357166596
 C         -4.3212182713       -0.1819174797       -0.2161662404
 C         -5.6708662114        0.3693334103       -0.5719859201
 C         -5.5461919516        1.7054811606       -1.3174726596
 C         -4.6179263116        2.7099533004       -0.6344651792
 H         -3.5950756316        2.3263658705       -0.6618522595
 H         -4.6321074018        3.6242415307       -1.2318098989
 C         -4.9974227616        3.0409696398        0.8158093609
 H         -4.9333215817        4.1221034597        0.9563068713
 H         -6.0319439615        2.7512127996        1.0033252509
 C         -4.0930270914        2.4005420895        1.8703990006
 H         -3.0473660115        2.6126877597        1.6324603706
 H         -4.3102690814        2.8691959090        2.8340145008
 C         -4.2495127813        0.8854633294        2.0525907100
 H         -5.3026312112        0.6407941992        2.2046490400
 H         -3.6970896212        0.6011900891        2.9529900298
 H         -5.1581047316        1.5084055610       -2.3195068997
 H         -6.5427899516        2.1390478105       -1.4182449394
 H         -6.1767936714       -0.3502113695       -1.2178400104
 H         -6.2553210314        0.5011313099        0.3365189200
 O         -3.7938714613       -0.9272471393       -1.2188051508
 C         -2.5276064012       -1.4870797692       -1.1120993211
 O         -2.1690905113       -2.1257458587       -2.1179784814
 O         -1.6800900612       -0.2560611204        2.1877013194
 C         -0.4262832311       -1.8768511395        0.2278590086
 C          0.5175775487       -1.1192762791       -0.6719289311
 C          1.0424881987       -1.6349543885       -1.8490627214
 C          1.8932192786       -0.8705225781       -2.6299514611
 C          2.2509734685        0.4094375918       -2.2470381706
 C          1.7342424485        0.9307290812       -1.0680378804
 C          0.8716685986        0.1708859908       -0.2951385406
 H          0.4644468687        0.5789890904        0.6215274196
 N          2.1579709284        2.2098247111       -0.6358955799
 S          3.7902382584        2.2492921111       -0.2305812000
 O          3.9413868684        3.3438041407        0.7016340505
 O          4.5723437984        2.3311276617       -1.4374711800
 C          4.0586732386        0.6783599908        0.5714406394
 C          4.6079167087       -0.3672459989       -0.1426299111
 C          4.6841949889       -1.6160559491        0.4524924184
 C          4.2090572990       -1.7973599297        1.7419917584
 C          3.6674342589       -0.7350411900        2.4494407188
 C          3.5848807687        0.5148121002        1.8579306493
 H          3.1672263087        1.3636227900        2.3761667797
 H          3.2980094890       -0.8782500404        3.4524238588
 H          4.2609708291       -2.7726732798        2.2003342780
 H          5.1042079789       -2.4447332088       -0.0940999620
 H          4.9615033986       -0.1846963484       -1.1438432010
 H          1.6160183284        2.5544804607        0.1447998103
 H          2.9313846384        1.0089684721       -2.8300945204
 H          2.2878494586       -1.2805599277       -3.5470068413
 H          0.7735947788       -2.6301502584       -2.1609381918
 H         -0.1391273211       -1.6593403799        1.2662380587
 C         -0.3947478910       -3.3751885894        0.0227167480
 C          0.8100438291       -4.1390476995        0.4832035176
 C         -0.4895636008       -4.2757443899        1.2161370677
 H         -1.0423473307       -5.1982512499        1.1205190873
 H         -0.5821400608       -3.8115810903        2.1871067679
 H          1.1536301592       -4.9703555892       -0.1126682427
 H          1.6013072091       -3.5740838096        0.9527274378
 H         -0.8905962410       -3.6966310891       -0.8846905821
