  62
        -98.93893101
 C          1.0368281097        1.6387440096        0.4046495008
 C          1.6724609694        0.6836975692        1.2343034206
 C          2.7813729095       -0.0836801407        0.6440618706
 C          3.0969240499        0.1049033197       -0.6503395192
 C          4.1836240200       -0.5119468401       -1.5049295991
 C          4.8683703998       -1.8084542803       -1.0795994394
 C          3.9569152696       -3.0336747002       -1.0409055801
 H          4.5459220194       -3.8814102504       -0.6824962302
 H          3.6295955699       -3.2611194498       -2.0587292802
 C          2.7058328794       -2.9011716004       -0.1749022404
 H          2.1863442893       -3.8642396303       -0.1922500508
 H          2.0216741296       -2.1747955702       -0.6219166403
 C          2.9631703890       -2.5343723309        1.2864473498
 H          3.6940003788       -3.2253270612        1.7114212298
 H          2.0232837789       -2.6709554910        1.8277551695
 C          3.4417610591       -1.0922848411        1.5396095505
 H          4.5240001991       -1.0150334812        1.4600922508
 H          3.1668669789       -0.8201329114        2.5628531405
 H          5.3653627495       -1.6792874607       -0.1225216392
 H          5.6493539399       -2.0026278802       -1.8200506292
 H          4.9508199201        0.2618162899       -1.6237147386
 H          3.7314828303       -0.6547291497       -2.4917201593
 O          2.4366176702        1.0136239701       -1.4230526191
 C          1.3850439601        1.7777083300       -0.9389758191
 O          0.8700609104        2.5208051104       -1.7953588390
 O          1.3250705491        0.4736953989        2.4277136604
 C         -0.1540818903        2.3864743495        0.9763124507
 C         -1.3518085801        2.2150218500        0.0727830503
 C         -2.2448305199        3.2283844102       -0.2481211596
 C         -3.3263222197        2.9670031706       -1.0733244900
 C         -3.5436420697        1.7038042008       -1.5914607805
 C         -2.6508790399        0.6828274306       -1.2798725506
 C         -1.5817857001        0.9460593802       -0.4421043802
 H         -0.8788362703        0.1587113200       -0.2233155303
 N         -2.8106642799       -0.6022904892       -1.8019198011
 S         -1.9504755802       -1.9239289895       -1.2844608013
 O         -0.5439717201       -1.7697207495       -1.5644986409
 O         -2.6069070201       -3.0379155692       -1.9362239719
 C         -2.2352206207       -2.0165425701        0.4736708386
 C         -3.5386363008       -2.1280112801        0.9165540482
 C         -3.7821059712       -2.1704327605        2.2795474281
 C         -2.7241893514       -2.0952953510        3.1733141584
 C         -1.4206795813       -1.9914039109        2.7136334788
 C         -1.1725629709       -1.9550719105        1.3510644189
 H         -0.1703720708       -1.8639999805        0.9608315092
 H         -0.5934235115       -1.9174663813        3.4017202891
 H         -2.9142279917       -2.1175175313        4.2347738284
 H         -4.7941075713       -2.2550519805        2.6413795978
 H         -4.3353107206       -2.1871034397        0.1933312480
 H         -3.6660764398       -0.8071989889       -2.2910677414
 H         -4.3809386996        1.5096732411       -2.2436297908
 H         -4.0102941096        3.7644590708       -1.3214838699
 H         -2.0874396399        4.2260610200        0.1271999508
 H         -0.3756693007        1.8505647892        1.9159831904
 C          0.1176486397        3.8327912394        1.3636368713
 C          1.5155526397        4.3460918791        1.5329911118
 C          0.6731888301        4.8297716196        0.3927872518
 H          0.2991012502        5.8426813797        0.4269877120
 H          0.9032760103        4.4780827400       -0.6003863683
 H          1.7185607496        5.0215606788        2.3506750021
 H          2.3284361797        3.6690214691        1.3122712618
 H         -0.6119902504        4.2069531692        2.0751262912
