  62
        -98.93631656
 C          1.7649608607        0.2112393997       -0.3176084001
 C          2.9120114009        0.4814471500       -1.0995709298
 C          4.2003920207        0.4523177096       -0.3911729096
 C          4.2149383805        0.1936890091        0.9294200103
 C          5.4488807404        0.0566925687        1.7755873804
 C          6.1019277003       -1.3197599613        1.5367828400
 C          7.4836679904       -1.2574980711        0.8855431002
 H          7.7449579804       -2.2714131110        0.5750633899
 H          8.2150053603       -0.9433811914        1.6332269305
 C          7.6124417307       -0.3189352106       -0.3181449794
 H          8.5443002008       -0.5781948704       -0.8252480593
 H          7.7233981907        0.7096954493        0.0282688211
 C          6.4665064409       -0.3726397101       -1.3367806596
 H          5.9562180008       -1.3349650001       -1.2921376301
 H          6.8970669510       -0.2875344697       -2.3366644095
 C          5.4318194009        0.7597381799       -1.1978976793
 H          5.0562615311        1.0130523303       -2.1938955693
 H          5.9193904009        1.6521532797       -0.7953230889
 H          5.4306866104       -1.9131913310        0.9126387796
 H          6.1956480201       -1.8477309716        2.4869065798
 H          5.1411178702        0.1560792983        2.8166309204
 H          6.1467020204        0.8572966987        1.5404271709
 O          3.0889156304       -0.0527096911        1.6482596900
 C          1.8373213305       -0.0506357708        1.0503519098
 O          0.8946509503       -0.2895175711        1.8272387295
 O          2.8598007711        0.7432585805       -2.3323862897
 C          0.4010093408        0.2223733401       -0.9821060604
 C         -0.4971236992        1.2473701399       -0.3346566401
 C          0.0119742408        2.5131956897       -0.0538094895
 C         -0.7772500992        3.4773268295        0.5408425208
 C         -2.0987111493        3.2077005695        0.8516112604
 C         -2.6221460393        1.9547627996        0.5616162998
 C         -1.8218975293        0.9830557698       -0.0250086204
 H         -2.2487037093        0.0179339299       -0.2405853709
 N         -3.9540185194        1.6449293496        0.8725130395
 S         -4.8769988493        0.7521510301       -0.1984825810
 O         -4.5069415390        1.0146895906       -1.5695873809
 O         -6.2465352293        1.0604030300        0.1568046289
 C         -4.5528893294       -0.9494381001        0.2121980883
 C         -4.5425928293       -1.8870026897       -0.8015506021
 C         -4.3434429294       -3.2208464199       -0.4808115426
 C         -4.1590285997       -3.5916957204        0.8420536073
 C         -4.1735612498       -2.6378019308        1.8483918977
 C         -4.3767546797       -1.3033236907        1.5350691682
 H         -4.3894476698       -0.5375774610        2.2925450285
 H         -4.0256823900       -2.9292524912        2.8758445176
 H         -4.0014842098       -4.6296001305        1.0898675069
 H         -4.3315211794       -3.9638722395       -1.2625843929
 H         -4.6785572091       -1.5528105593       -1.8178892919
 H         -4.4836301094        2.3999924794        1.2830236597
 H         -2.7181292294        3.9601422293        1.3158591706
 H         -0.3637805492        4.4505413194        0.7595022212
 H          1.0421297709        2.7289118798       -0.3032052892
 H          0.5826691610        0.5399575805       -2.0202877902
 C         -0.1853100092       -1.1739885399       -0.9965213310
 C         -1.1232075491       -1.5932045894       -2.0876292814
 C          0.2716096809       -2.1390075095       -2.0477420913
 H          0.4133865308       -3.1730950696       -1.7723414017
 H          0.9852579510       -1.7780197692       -2.7739961811
 H         -1.9388490992       -2.2539272894       -1.8355365018
 H         -1.3668038089       -0.8643138491       -2.8461677311
 H         -0.3551864194       -1.5622498503        0.0017479488
