  62
        -98.94030191
 C         -1.4065663087       -1.4948846067        0.0091335880
 C         -2.3860845846       -1.0183845391        0.9080444273
 C         -3.2344558481        0.0910596072        0.4337105819
 C         -3.0102719940        0.5978749905       -0.7930317436
 C         -3.7697172252        1.7144557081       -1.4577685846
 C         -3.3809277695        3.1189717605       -0.9465831648
 C         -2.9031459826        3.1725964344        0.5047758066
 H         -2.1572164178        2.3919577820        0.6682536564
 H         -2.4053956054        4.1328238912        0.6648420673
 C         -4.0154296611        3.0457672038        1.5452719746
 H         -3.5512770133        2.9640875000        2.5314540533
 H         -4.6114386470        3.9619660971        1.5343206030
 C         -4.9685039164        1.8692077100        1.3493810935
 H         -5.5302623759        1.9979638452        0.4279695032
 H         -5.6956361131        1.8965680170        2.1665864226
 C         -4.3225341641        0.4857197672        1.4010146583
 H         -5.1159810511       -0.2662670664        1.3043936139
 H         -3.8916945390        0.3324540600        2.3967898452
 H         -4.2331061484        3.7882829071       -1.0711140395
 H         -2.5733163343        3.4969445188       -1.5766819661
 H         -3.5482163996        1.6555721655       -2.5249630412
 H         -4.8348075234        1.5332116815       -1.3324645000
 O         -2.0071167772        0.1541580546       -1.5990349028
 C         -1.1912156398       -0.9042231622       -1.2364410788
 O         -0.3381504155       -1.2155799688       -2.0851793647
 O         -2.5504484853       -1.4994481163        2.0635313883
 C         -0.5519327942       -2.6841389150        0.4097319487
 C          0.9054874952       -2.2980993612        0.4090759279
 C          1.8892759968       -2.9996596053       -0.2738953378
 C          3.2049396035       -2.5682315033       -0.2488729293
 C          3.5688428378       -1.4385401032        0.4597166672
 C          2.5932307371       -0.7358468210        1.1554358986
 C          1.2773674691       -1.1671120464        1.1267236501
 H          0.5175426749       -0.6136236592        1.6652870820
 N          2.9542781130        0.4277848816        1.8699327074
 S          3.6050480997        1.6599226921        0.9344561812
 O          4.9627826940        1.3224899835        0.5907396132
 O          3.4271942800        2.8666259511        1.7107162880
 C          2.5861221337        1.6929140295       -0.5264513887
 C          3.0168099921        1.0694946305       -1.6794874004
 C          2.1725959800        1.0365973072       -2.7772115010
 C          0.9187651248        1.6209912841       -2.7028273738
 C          0.5025736626        2.2448444502       -1.5375827316
 C          1.3382650535        2.2758020650       -0.4344426682
 H          1.0464913697        2.7527211979        0.4885436379
 H         -0.4766965617        2.6914802448       -1.4800686610
 H          0.2560051824        1.5797774763       -3.5522980399
 H          2.4874078131        0.5442421887       -3.6828141220
 H          3.9989759461        0.6263405750       -1.6972542907
 H          2.1954051480        0.7973539473        2.4255576837
 H          4.5857779123       -1.0814798927        0.4798074809
 H          3.9574710775       -3.1199529786       -0.7912645225
 H          1.6263627220       -3.8803978358       -0.8357399932
 H         -0.8429413950       -2.9188873240        1.4444290953
 C         -0.8697943610       -3.8766495556       -0.4673302681
 C         -0.6656492648       -5.2681110675        0.0504606514
 C         -2.0530070984       -4.7302967503       -0.1265877887
 H         -2.6593693043       -5.1171497332       -0.9318142967
 H         -2.6179745986       -4.4664016053        0.7556860856
 H         -0.3211906545       -6.0287193467       -0.6337211205
 H         -0.2890641113       -5.3768628428        1.0562849888
 H         -0.6782745576       -3.6853896454       -1.5170923336
