  62
        -98.93809555
 C          0.6466097220        1.6424325146       -0.6029572645
 C          1.8245465212        1.9399818554        0.1313405915
 C          2.9571503853        1.0222822654       -0.0384189097
 C          2.8401343595       -0.0227946966       -0.8766527549
 C          3.9092976854       -1.0252510286       -1.2236836050
 C          4.3981311895       -1.9295299224       -0.0761527348
 C          5.6404911100       -1.4075582118        0.6563211897
 H          6.3035294011       -2.2486482459        0.8690530602
 H          6.1880714188       -0.7389804374       -0.0090262694
 C          5.3763004264       -0.6992668320        1.9883393514
 H          5.1778137247       -1.4484727369        2.7580865569
 H          6.2885733722       -0.1706143629        2.2733296544
 C          4.2088323958        0.2879057766        1.9974012459
 H          4.2525452164        0.8592235083        2.9268152014
 H          3.2629951378       -0.2584508816        2.0157000282
 C          4.1792758610        1.2581791332        0.8006618765
 H          4.1176576049        2.2882990842        1.1574127220
 H          5.0820988524        1.1569535013        0.1999745095
 H          4.6483902925       -2.8949590791       -0.5186961362
 H          3.5837857049       -2.0919581816        0.6282804482
 H          4.7614387479       -0.4909816577       -1.6504651105
 H          3.4782669523       -1.6455724960       -2.0116193487
 O          1.7006160216       -0.2661064695       -1.5759530038
 C          0.5762454338        0.5375825313       -1.4523401801
 O         -0.3805279927        0.1529517846       -2.1533977777
 O          1.9282448571        2.9440305552        0.8864476953
 C         -0.5266405237        2.5846593643       -0.3985738288
 C         -1.4662760343        2.0666185052        0.6647961892
 C         -1.8328808778        2.8640712802        1.7423048047
 C         -2.7002888447        2.3839839734        2.7074805350
 C         -3.2113431607        1.1023506092        2.6184706443
 C         -2.8432409088        0.2926586453        1.5480924263
 C         -1.9805037550        0.7805299767        0.5776271220
 H         -1.7170887436        0.1571746850       -0.2613759620
 N         -3.2960265571       -1.0271985134        1.4718397383
 S         -3.3033797804       -1.9158627829        0.0626178115
 O         -3.8214647662       -1.1580570573       -1.0519352116
 O         -4.0651470167       -3.0992971199        0.4113939259
 C         -1.6117798694       -2.3999850769       -0.2015033072
 C         -0.7771087481       -2.5731271362        0.8843559945
 C          0.5148696980       -3.0235375142        0.6682122818
 C          0.9454250592       -3.3012223250       -0.6197801496
 C          0.0951850603       -3.1210796065       -1.6981596606
 C         -1.1964700649       -2.6653411100       -1.4900295858
 H         -1.8808299139       -2.4917092645       -2.3048465377
 H          0.4341867438       -3.3210886515       -2.7019662754
 H          1.9509231135       -3.6547648133       -0.7847049997
 H          1.1806026363       -3.1585047263        1.5064147273
 H         -1.1394739940       -2.3468941432        1.8738499458
 H         -4.0111522510       -1.3011301861        2.1274546420
 H         -3.8846272443        0.7242377537        3.3723082634
 H         -2.9804835489        3.0127739885        3.5388189416
 H         -1.4246426951        3.8602458033        1.8260935765
 H         -0.0843452352        3.5193358616       -0.0264488459
 C         -1.3028668748        2.8942643427       -1.6634942703
 C         -2.0403354956        4.1944656591       -1.7653283934
 C         -0.8076943376        3.9648331548       -2.5865989414
 H         -0.9119345241        3.8146956874       -3.6505766611
 H          0.0959023136        4.4863909519       -2.3057883090
 H         -2.9973407810        4.2035380632       -2.2641614238
 H         -1.9722452032        4.8775725067       -0.9322419973
 H         -1.7596171407        2.0208285715       -2.1115432930
