  62
        -98.94288817
 C         -0.7861722300       -1.3895375999       -0.1061495499
 C         -1.5414471697       -0.7976577190        0.9390417599
 C         -2.5711264195        0.1650260009        0.5371822894
 C         -2.6977366797        0.4944364401       -0.7603151708
 C         -3.7021505996        1.4563677199       -1.3363824512
 C         -5.0725994798        0.8234244400       -1.6152218306
 C         -5.9113639396        0.5222483609       -0.3721534502
 H         -5.9749082894        1.4175312414        0.2470016992
 H         -6.9215901597        0.2922873909       -0.7166231699
 C         -5.3982976097       -0.6540005586        0.4705358305
 H         -4.7059082599       -1.2536937691       -0.1250261393
 H         -6.2358732698       -1.3033314583        0.7353879410
 C         -4.7085261294       -0.2503279279        1.7740450601
 H         -4.3592409495       -1.1593821276        2.2698630706
 H         -5.4298759492        0.2372324827        2.4333649399
 C         -3.5033343593        0.6821361018        1.5905677792
 H         -3.8426806391        1.6870419417        1.3418230486
 H         -2.9502903491        0.7170194923        2.5317109391
 H         -4.9240052901       -0.0950217904       -2.1879525600
 H         -5.6316925298        1.5195849297       -2.2448916109
 H         -3.2871905997        1.8139930192       -2.2814211415
 H         -3.8318597993        2.3072456804       -0.6668245618
 O         -1.8888786400       -0.0179145407       -1.7237239706
 C         -0.9380389001       -0.9962824807       -1.4369521201
 O         -0.3336715004       -1.4061909515       -2.4436233400
 O         -1.3745672395       -1.0848165283        2.1537989900
 C          0.1955414499       -2.4686219698        0.3124879106
 C          1.5216203501       -1.8865223198        0.7295950600
 C          2.1771700102       -2.3690692392        1.8573422802
 C          3.4081526604       -1.8602843992        2.2290653296
 C          3.9979240604       -0.8478065897        1.4946904789
 C          3.3438551203       -0.3480435803        0.3738939787
 C          2.1157202502       -0.8713587304       -0.0067496408
 H          1.6287475801       -0.4891150708       -0.8917628809
 N          3.9123499004        0.6902962891       -0.3771810321
 S          2.9315718405        1.8487705288       -1.0677784927
 O          2.3746993202        1.3719298981       -2.3074554023
 O          3.7880336907        3.0126702386       -1.1787558336
 C          1.6335849408        2.1911384598        0.1086696673
 C          0.3613108407        2.4266075997       -0.3687295626
 C         -0.6376323490        2.7787798205        0.5243261674
 C         -0.3548429588        2.8662718513        1.8775500272
 C          0.9263739513        2.6188608614        2.3437261172
 C          1.9351261310        2.2916079206        1.4525711972
 H          2.9421667511        2.1143621607        1.7925888671
 H          1.1432855215        2.6842105820        3.3975765571
 H         -1.1382046986        3.1293539119        2.5703122572
 H         -1.6301395591        2.9822050805        0.1583114474
 H          0.1753760505        2.3217082091       -1.4266301525
 H          4.7564370505        1.0891473591        0.0071030475
 H          4.9558915706       -0.4430590897        1.7829622084
 H          3.9092223705       -2.2474227787        3.1027776098
 H          1.7084596502       -3.1410923987        2.4491058908
 H         -0.2517351900       -2.9210794791        1.2131180810
 C          0.3527393895       -3.5794364705       -0.7166083287
 C          1.5471033193       -3.7115715513       -1.6077529388
 C          1.3347934693       -4.6919762605       -0.4957601581
 H          1.0357835591       -5.6987434806       -0.7451839574
 H          1.9884378295       -4.6218775601        0.3600642417
 H          1.3782550891       -4.0248677019       -2.6266599886
 H          2.3367195595       -2.9824828214       -1.5103457194
 H         -0.6007910706       -3.8548785606       -1.1562896683
