  62
        -98.94198469
 C         -1.2267912313        0.8653851600       -0.3587428964
 C         -2.0496024927        0.6659273159        0.7730312504
 C         -3.0388953860       -0.4224598963        0.6753199605
 C         -3.0668390299       -1.1859931829       -0.4306176285
 C         -4.0231822757       -2.3028334847       -0.7454791681
 C         -5.2211825325       -1.7794926221       -1.5561271619
 C         -6.3808514165       -1.2435459817       -0.7173743435
 H         -7.0955810190       -0.7878877926       -1.4064173661
 H         -6.8848236348       -2.0796493343       -0.2281475980
 C         -5.9989658686       -0.2122026998        0.3478074554
 H         -5.2795703016        0.4963393912       -0.0664686238
 H         -6.8978175895        0.3515852109        0.6046300400
 C         -5.4302794418       -0.8464288361        1.6259598226
 H         -5.6276471652       -1.9182731298        1.6093275403
 H         -5.9602665065       -0.4477557565        2.4933982642
 C         -3.9331218582       -0.6022636889        1.8716155961
 H         -3.8034673852        0.3162353354        2.4528719982
 H         -3.5329164368       -1.4169629446        2.4848916773
 H         -4.8555891798       -0.9953052968       -2.2239943361
 H         -5.6015844134       -2.5897604115       -2.1814398257
 H         -3.4722287313       -3.0206136637       -1.3572900629
 H         -4.3486258226       -2.7984215216        0.1644717865
 O         -2.2178909416       -0.9935757914       -1.4775299551
 C         -1.2777518316        0.0191920391       -1.4654232593
 O         -0.5533911867        0.0655726603       -2.4816900267
 O         -1.9712947985        1.3657042179        1.8172521890
 C         -0.1817448496        1.9650229568       -0.3570162469
 C          0.8522326750        1.7060996156        0.7130750357
 C          1.4280371317        2.7088387021        1.4831265797
 C          2.3978746861        2.3985123287        2.4211112461
 C          2.8346433057        1.0971579994        2.5921904432
 C          2.2687890546        0.0881923148        1.8213986377
 C          1.2816101806        0.4000154611        0.9014248579
 H          0.8291676007       -0.3968781105        0.3316590742
 N          2.6825040206       -1.2475619221        1.9437077102
 S          2.7782138619       -2.1927684445        0.5656283740
 O          1.4628478220       -2.6064867582        0.1444341063
 O          3.6852252975       -3.2605025579        0.9315693928
 C          3.5507330711       -1.1383751936       -0.6491838719
 C          4.8852724909       -0.8340760044       -0.4553863868
 C          5.5158004220        0.0262675562       -1.3379807835
 C          4.8024437094        0.5724003959       -2.3947102984
 C          3.4672339452        0.2519958839       -2.5797232185
 C          2.8303163515       -0.6116901387       -1.7012017585
 H          1.7895614894       -0.8668554832       -1.8296503985
 H          2.9037310526        0.6698778911       -3.3989489621
 H          5.2889286920        1.2485877772       -3.0798167822
 H          6.5563209977        0.2712381037       -1.1988450593
 H          5.4072430499       -1.2882699773        0.3711041500
 H          3.4701969546       -1.3958600719        2.5572764326
 H          3.5969970031        0.8600732772        3.3180753993
 H          2.8288066974        3.1849225803        3.0217031635
 H          1.1122361248        3.7310832010        1.3547905217
 H          0.3293138840        1.8950142874       -1.3295990147
 C         -0.8365930438        3.3264745324       -0.2485801443
 C         -0.2144470080        4.5191045143       -0.9087357525
 C         -1.4682632020        3.9212514186       -1.4702539132
 H         -2.3959508733        4.4623887819       -1.3600920029
 H         -1.4009890031        3.3547430663       -2.3881047419
 H         -0.2837212867        5.4764255221       -0.4145902547
 H          0.7048832919        4.3670359554       -1.4536673054
 H         -1.3456512042        3.4682886563        0.6974493889
