  62
        -98.94016783
 C         -1.3998764932       -1.6067080062       -0.5432214993
 C         -1.1855572632       -0.2488835408       -0.9011121831
 C         -2.3384359584        0.6560488647       -0.7486497691
 C         -3.5121805570        0.1813302453       -0.3014852409
 C         -4.7448612998        1.0012452335       -0.0565385672
 C         -4.7992534618        1.5062855973        1.3916320905
 C         -3.5032484379        2.1636593158        1.8673071148
 H         -3.6726490616        2.5172763599        2.8870266545
 H         -2.7115898476        1.4116837676        1.9199450628
 C         -3.0253544727        3.3321120274        0.9945653780
 H         -3.8492231694        3.6988852711        0.3803789094
 H         -2.7167317182        4.1509350746        1.6482486642
 C         -1.8282777121        3.0029378722        0.1000609942
 H         -1.0448028871        2.5325259969        0.7017707577
 H         -1.4303032437        3.9454827704       -0.2878045590
 C         -2.1243220528        2.1002693368       -1.1047731657
 H         -2.9809985425        2.4925085762       -1.6572789329
 H         -1.2486805472        2.1227586547       -1.7599022515
 H         -5.6220795781        2.2184584927        1.4785328271
 H         -5.0123938642        0.6587157459        2.0471902323
 H         -4.7586082372        1.8426702216       -0.7464903070
 H         -5.6174195570        0.3732552661       -0.2451571098
 O         -3.6923445879       -1.1233412692        0.0221591178
 C         -2.6518093791       -2.0278904675       -0.0685660100
 O         -2.9686718011       -3.1807491368        0.2939279388
 H          1.2620201912       -0.6055044874       -0.0452685417
 C          1.4303797003       -1.4185498706        0.6383133674
 C          0.6805694601       -2.5779922640        0.5215887030
 C          0.9163477580       -3.6154260871        1.4187090340
 C          1.8696594336       -3.4844469856        2.4124978898
 C          2.5919095313       -2.3114454639        2.5457852746
 C          2.3626474674       -1.2704339136        1.6545362788
 N          3.0737142710       -0.0647469498        1.7400274615
 S          2.2960090132        1.3812676818        1.3964761208
 O          3.0898558297        2.3828172437        2.0843333794
 O          0.9028138966        1.3381077428        1.7783159176
 C          2.4942332268        1.6367543387       -0.3541823020
 C          1.7906804042        2.6776068955       -0.9238217005
 C          1.9397629713        2.9291285732       -2.2773772572
 C          2.7907556609        2.1405439412       -3.0348688379
 C          3.4980424229        1.1056501879       -2.4450233613
 C          3.3541534016        0.8494116367       -1.0905859431
 H          3.8816828915        0.0415752590       -0.6108805710
 H          4.1561020822        0.4897163761       -3.0369881269
 H          2.8978969749        2.3301047385       -4.0915047637
 H          1.3854363544        3.7323586300       -2.7367889160
 H          1.1299245968        3.2598253226       -0.3019326533
 H          3.6882034996        0.0232493836        2.5358564012
 H          3.3219381918       -2.2004565103        3.3333277945
 H          2.0420832067       -4.2975816207        3.1014448839
 H          0.3352522255       -4.5232626557        1.3410009872
 C         -0.3652076471       -2.7275547225       -0.5602901257
 H         -0.9586416450       -3.6176903054       -0.2996957423
 C          0.3047971495       -3.0791163431       -1.8863619437
 C         -0.2910019437       -2.7240635984       -3.2138465874
 C          1.0154312811       -2.1217687926       -2.7912524720
 H          1.9176030277       -2.4675185547       -3.2745210236
 H          1.0223889581       -1.0781261977       -2.5257522611
 H         -1.1606976009       -2.0823948551       -3.2098083113
 H         -0.3011513415       -3.4709930436       -3.9939734077
 H          0.7509031014       -4.0684828094       -1.8217366062
 O         -0.1089480091        0.2292630037       -1.3423306441
