  62
        -98.94440710
 C         -2.6181857908       -1.0805757486        0.1968437410
 C         -2.5848791716       -0.1691317474       -0.8865300205
 C         -3.1679303491        1.1540565430       -0.6287649011
 C         -3.7149463351        1.4315981469        0.5676835164
 C         -4.3542344716        2.7310552703        0.9742797497
 C         -3.3544130772        3.7864158317        1.4665003638
 C         -2.4905126808        4.4227962402        0.3767942455
 H         -3.1301809278        4.7884135796       -0.4272007530
 H         -1.9985983095        5.2895054286        0.8225035203
 C         -1.4148004332        3.4937564512       -0.2033490872
 H         -1.2479613569        2.6494761523        0.4704733374
 H         -0.4620320465        4.0247711793       -0.2694746553
 C         -1.7235517421        2.9550120352       -1.6000860909
 H         -0.9094778713        2.2813543424       -1.8838168262
 H         -1.7394498896        3.7803091280       -2.3160904383
 C         -3.0491620244        2.1889878136       -1.7066455239
 H         -3.8871954471        2.8841084981       -1.6625476194
 H         -3.0705520255        1.6732705906       -2.6698927299
 H         -2.7080802516        3.3311014486        2.2204788401
 H         -3.9286633556        4.5780957464        1.9530747107
 H         -5.0388699687        2.4977016103        1.7924318440
 H         -4.9306138317        3.1339253122        0.1412466246
 O         -3.7633052957        0.5180466800        1.5721422711
 C         -3.1915341638       -0.7329650770        1.4250617429
 O         -3.2686508240       -1.4491999623        2.4431963343
 O         -2.1021388903       -0.4189556545       -2.0247305847
 C         -1.9869575274       -2.4661784642        0.1466058252
 C         -0.4971471863       -2.3211071678        0.3450506863
 C          0.1145902647       -2.7392490697        1.5211189567
 C          1.4652207371       -2.5201093762        1.7304458746
 C          2.2287626156       -1.8641824685        0.7807323540
 C          1.6238415991       -1.4386558207       -0.3938452558
 C          0.2794439851       -1.6875176578       -0.6149678994
 H         -0.1839103610       -1.3337385348       -1.5240860828
 N          2.3817438908       -0.7081858880       -1.3405634780
 S          2.7661603835        0.8491866589       -0.8138580885
 O          1.7936656929        1.3393477944        0.1362911709
 O          2.9529083728        1.6361156708       -2.0137995001
 C          4.3399610044        0.6235755660       -0.0125695408
 C          5.4135545285        0.2257267475       -0.7852627850
 C          6.6422555233        0.0328594119       -0.1744017067
 C          6.7756765022        0.2407706298        1.1905739596
 C          5.6885581069        0.6423460287        1.9517927238
 C          4.4564000882        0.8364617068        1.3467547180
 H          3.5813494782        1.1431842171        1.8974053707
 H          5.7937599892        0.8035415636        3.0126642662
 H          7.7326981471        0.0894039351        1.6644021256
 H          7.4901281330       -0.2787029998       -0.7627972633
 H          5.2655549674        0.0814889656       -1.8424450196
 H          1.9055664989       -0.6347818163       -2.2302875691
 H          3.2769015897       -1.6722609653        0.9446229749
 H          1.9251387807       -2.8514519685        2.6489707151
 H         -0.4843636090       -3.2154564367        2.2840127019
 H         -2.3915729950       -3.0092200377        1.0108457393
 C         -2.3282707124       -3.2416095794       -1.1093724802
 C         -2.2005998167       -4.7342012010       -1.0953151167
 C         -3.5571181765       -4.0979599741       -1.1256200925
 H         -4.1347873585       -4.1507974177       -2.0361501040
 H         -4.1561576247       -4.1284249474       -0.2269720044
 H         -1.8445595773       -5.2284638570       -1.9860543139
 H         -1.8808864239       -5.1995132512       -0.1752232539
 H         -2.0773953300       -2.7211909072       -2.0238023297
