  62
        -98.94030389
 C         -1.9313557477       -1.4759251867       -0.0615198350
 C         -1.7067212597       -0.2279604898       -0.6847615290
 C         -2.8942691469        0.6200071996       -0.8927671460
 C         -4.0984603717        0.1652099289       -0.5048986638
 C         -5.4126884517        0.8923395502       -0.5717703973
 C         -5.6998580183        1.6118436946        0.7571787744
 C         -5.1095805684        3.0170701812        0.8706740067
 H         -5.6645877687        3.6921178797        0.2157625957
 H         -5.2691975934        3.3533808492        1.8977595579
 C         -3.6186593773        3.1332955064        0.5416138452
 H         -3.0752284249        2.3006953757        0.9921092567
 H         -3.2465020422        4.0498275149        1.0034315050
 C         -3.3364105800        3.1881894405       -0.9673193811
 H         -2.6916056403        4.0424025092       -1.1836126814
 H         -4.2721923262        3.3674372143       -1.4965814544
 C         -2.6437306636        1.9479261872       -1.5536284020
 H         -2.9004916800        1.8639830824       -2.6149003287
 H         -1.5578142925        2.0770896419       -1.5063228951
 H         -5.3173353687        0.9843748882        1.5664124671
 H         -6.7812326186        1.6880318314        0.8877554201
 H         -6.1820207166        0.1337352300       -0.7300699255
 H         -5.4275337844        1.5865248186       -1.4067341794
 O         -4.2715714699       -1.0525814553        0.0795683742
 C         -3.2040257622       -1.8962825372        0.3229584197
 O         -3.5077839553       -2.9699410247        0.8809589276
 O         -0.5674430590        0.1692190499       -1.0436157186
 C         -0.7639242845       -2.4104772486        0.1989620328
 C          0.2856188262       -1.7053100315        1.0228271999
 C         -0.0967716031       -1.1009374509        2.2187364643
 C          0.8266889457       -0.4434218954        3.0072103161
 C          2.1524961707       -0.3659159912        2.6155654543
 C          2.5458459622       -0.9696384784        1.4285311693
 C          1.6174597450       -1.6450657788        0.6459987441
 H          1.9541936159       -2.0976349975       -0.2709937251
 N          3.8897817785       -0.9271533124        1.0091196516
 S          4.2630103391       -0.2623134051       -0.4831851789
 O          3.6095368499       -1.0035581730       -1.5291960601
 O          5.7095601110       -0.2426435856       -0.5220282122
 C          3.6526755837        1.4119735926       -0.3943641536
 C          2.3018806110        1.6571611010       -0.5398252372
 C          1.8459758040        2.9588148956       -0.3937525026
 C          2.7349663191        3.9834312881       -0.1102638522
 C          4.0889738766        3.7183474070        0.0309772800
 C          4.5526448187        2.4205237151       -0.1057420505
 H          5.5958028693        2.1668886554       -0.0058509475
 H          4.7808295765        4.5159105646        0.2493436853
 H          2.3700684732        4.9925198677        0.0001564900
 H          0.7907980745        3.1544092836       -0.5017466880
 H          1.6180048930        0.8537467948       -0.7643924676
 H          4.5174635560       -0.5450743878        1.7032210410
 H          2.8756574075        0.1539263598        3.2257286659
 H          0.5126499496        0.0197336402        3.9303990749
 H         -1.1348522836       -1.1550319998        2.5190698814
 H         -1.1666909520       -3.2418227063        0.7961799683
 C         -0.2375415805       -2.9643512754       -1.1084765373
 C          0.4347701518       -4.3026813327       -1.1418404942
 C         -0.9320123151       -4.1351426110       -1.7332657176
 H         -1.0374089545       -4.1595283727       -2.8075864005
 H         -1.7756182927       -4.5516889090       -1.2017915247
 H          1.2720635624       -4.4399379194       -1.8097701643
 H          0.5211733961       -4.8422103137       -0.2106660548
 H          0.1349558845       -2.1932383255       -1.7739766637
