  62
        -98.94538909
 C         -1.5390880095       -1.2977402660       -0.6892980244
 C         -2.8284446453       -1.1234040975       -0.1214464515
 C         -3.5566118613        0.0927038178       -0.4997543186
 C         -2.9838361697        0.9582635593       -1.3554059791
 C         -3.5810099134        2.2672773094       -1.7822904950
 C         -3.1286298338        3.4071529892       -0.8594050031
 C         -3.2923561724        3.0996314561        0.6292288439
 H         -2.6007954441        2.2983757498        0.9031666297
 H         -2.9769321392        3.9889441196        1.1798596164
 C         -4.7187044291        2.7156445326        1.0482626360
 H         -4.9677125077        3.2510290083        1.9669082197
 H         -5.4273135221        3.0363398377        0.2836844345
 C         -4.9191369189        1.2258486421        1.3326682086
 H         -5.8841993068        1.1018299789        1.8313080141
 H         -4.1458870804        0.8790095188        2.0233303173
 C         -4.9153856748        0.3062299153        0.1052265625
 H         -5.2578132129       -0.6811498999        0.4286291980
 H         -5.6151100874        0.6861996661       -0.6419131882
 H         -3.6965163101        4.3044591461       -1.1131103056
 H         -2.0706093760        3.6069866705       -1.0464199408
 H         -4.6663754619        2.1865130366       -1.7729944613
 H         -3.2491168384        2.4824459514       -2.7994475211
 O         -1.7625008926        0.7493619260       -1.9013691049
 C         -0.9959318636       -0.3579148170       -1.5650966595
 O          0.1131070130       -0.3756714093       -2.1340394077
 O         -3.3502598122       -1.9589773104        0.6661068256
 C         -0.7725264092       -2.5301600837       -0.2363729085
 C          0.0391829623       -2.1907642136        0.9925134588
 C         -0.1673288536       -2.8627742972        2.1906975547
 C          0.5417435115       -2.5076375794        3.3246544608
 C          1.4480074599       -1.4647680286        3.2869577802
 C          1.6641136710       -0.7855704558        2.0909435889
 C          0.9813365188       -1.1717903866        0.9476805899
 H          1.1471657261       -0.6423823034        0.0247920163
 N          2.5790617328        0.2724596086        2.0390934382
 S          2.3993326906        1.6034675895        1.0330893388
 O          2.9549593197        2.7003693739        1.8018077618
 O          1.0357626380        1.7660891974        0.5918435401
 C          3.5154614568        1.2485708163       -0.3084872050
 C          4.8650668866        1.4103980175       -0.0540801804
 C          5.7788424447        1.1272102730       -1.0546024455
 C          5.3307807295        0.6864693760       -2.2913024263
 C          3.9750212644        0.5319812004       -2.5312523274
 C          3.0531033612        0.8152686248       -1.5334728824
 H          1.9938149203        0.6954444282       -1.7036104269
 H          3.6189193492        0.1894963398       -3.4899194282
 H          6.0403889600        0.4639244265       -3.0726781623
 H          6.8337927651        1.2499128152       -0.8694632924
 H          5.1673769615        1.7689601466        0.9157754967
 H          2.9681056926        0.5374862346        2.9317908516
 H          1.9828080916       -1.1690570665        4.1768862840
 H          0.3729420567       -3.0347094569        4.2515008789
 H         -0.9051417449       -3.6501143254        2.2355292413
 H         -1.5425431890       -3.2538086239        0.0656871624
 C          0.0921668525       -3.1705183991       -1.3019644071
 C          0.4375182896       -4.6233414439       -1.1775115433
 C         -0.5171458848       -4.1677288319       -2.2391995803
 H         -0.1910046066       -4.1708261629       -3.2681780511
 H         -1.5660881299       -4.3944634408       -2.1142479719
 H          1.4235883969       -4.9438834201       -1.4760106489
 H          0.0351613187       -5.1639124365       -0.3342278470
 H          0.8447151389       -2.5069929144       -1.7058427647
