  62
        -98.94479491
 C         -1.6819831993       -1.0373418295       -0.6687070211
 C         -1.6404473495        0.1455370302        0.1098482094
 C         -2.8913151596        0.5010823497        0.7944530396
 C         -3.9697851194       -0.2945423905        0.6840486993
 C         -5.3055776095       -0.0758471610        1.3412295994
 C         -6.2306652797        0.8789034092        0.5740110298
 C         -5.8349033599        2.3549898592        0.6308080104
 H         -6.6797887301        2.9279464592        0.2436219306
 H         -5.6901499800        2.6511105388        1.6702831105
 C         -4.5839446400        2.7075510098       -0.1859677795
 H         -4.3750571699        1.9046312801       -0.8964638398
 H         -4.7731005902        3.6112519200       -0.7695761391
 C         -3.3312751001        2.9634344197        0.6523658406
 H         -2.4993651101        3.1664857601       -0.0264634994
 H         -3.4805702802        3.8478866794        1.2757817709
 C         -2.9283675198        1.7912737994        1.5568241201
 H         -1.9219140898        1.9789262094        1.9406644701
 H         -3.6128684098        1.7150764989        2.4016935901
 H         -6.2803337596        0.5545677696       -0.4679124304
 H         -7.2304946296        0.7763551088        1.0020779898
 H         -5.7885755293       -1.0539145411        1.3955069490
 H         -5.1579451195        0.2948649886        2.3561180695
 O         -3.9597860293       -1.4394155802       -0.0493517712
 C         -2.8275214392       -1.8328771197       -0.7426967614
 O         -2.9639259690       -2.8968777394       -1.3804196818
 O         -0.6266957097        0.8802480404        0.2285381597
 C         -0.4541821493       -1.5335012389       -1.4177704913
 C          0.5319470109       -2.0599698192       -0.4021876016
 C          0.2583351811       -3.2683357395        0.2348298180
 C          1.1211150612       -3.7723059797        1.1883305777
 C          2.2645727711       -3.0737535696        1.5386186480
 C          2.5417939808       -1.8635814093        0.9166731485
 C          1.6840368707       -1.3721093591       -0.0588068213
 H          1.9156818706       -0.4382169689       -0.5380398709
 N          3.6993640007       -1.1312809493        1.2340255388
 S          3.5287917104        0.4950925305        1.6361248394
 O          4.7494719604        0.8074708905        2.3528049195
 O          2.3003650404        0.7319510000        2.3562835695
 C          3.5538564302        1.3500911612        0.0760721798
 C          2.4342251601        2.0267094812       -0.3658886299
 C          2.4929096000        2.6794066617       -1.5881325797
 C          3.6582943399        2.6456204922       -2.3383642497
 C          4.7738936601        1.9631262122       -1.8763233100
 C          4.7243758202        1.3089683117       -0.6562157803
 H          5.5686924903        0.7733380017       -0.2553815505
 H          5.6777756901        1.9382027226       -2.4633997900
 H          3.6948346598        3.1533446426       -3.2895618395
 H          1.6224485998        3.2047096617       -1.9487669594
 H          1.5338313501        2.0044783108        0.2288488401
 H          4.3030005208       -1.5892033294        1.9029509786
 H          2.9353166712       -3.4618205198        2.2907746578
 H          0.9001930914       -4.7130254900        1.6702810374
 H         -0.6444903388       -3.8026953895       -0.0282806622
 H         -0.7964805591       -2.3845102688       -2.0228767017
 C          0.1195446805       -0.4759970885       -2.3365403409
 C          1.1188688906       -0.8707263779       -3.3808856711
 C         -0.2670237695       -0.4670118779       -3.7834433409
 H         -0.4066383897        0.4852049322       -4.2725375305
 H         -0.9447761494       -1.2358638679       -4.1254832812
 H          1.9345774404       -0.1960218576       -3.5917976108
 H          1.3815638108       -1.9155776878       -3.4485029115
 H          0.2482225604        0.4841283414       -1.8537738705
