  62
        -98.93863730
 C          1.9943104102        1.3658280695        0.1949645608
 C          1.9408784496        0.3907947992        1.2260095505
 C          2.8866370095       -0.7265678009        1.1227090506
 C          3.7640359400       -0.7479626108        0.1029013710
 C          4.7501442999       -1.8484345809       -0.1592705289
 C          4.1546632102       -2.9077438005       -1.0978408894
 C          2.7550655499       -3.3695160104       -0.6920416301
 H          2.0678237401       -2.5247341303       -0.7811734902
 H          2.4388350301       -4.1247695502       -1.4146294905
 C          2.6638397792       -3.9498673808        0.7264736197
 H          2.0709948291       -4.8663555307        0.6937208092
 H          3.6595511790       -4.2208208210        1.0794348500
 C          1.9998645789       -3.0296398010        1.7532139996
 H          1.8039187684       -3.6140761912        2.6563558794
 H          1.0329474191       -2.6874174407        1.3744238093
 C          2.8146382689       -1.7990409412        2.1725561303
 H          2.3132911086       -1.3461324013        3.0332952102
 H          3.8155516087       -2.1068523214        2.4819459907
 H          4.8301040601       -3.7644015106       -1.1267573193
 H          4.0967914307       -2.4850752603       -2.1033597693
 H          5.0384450794       -2.3039779111        0.7859780611
 H          5.6346594102       -1.4144990909       -0.6281978084
 O          3.8071071305        0.2153477495       -0.8482460887
 C          2.9023220707        1.2688826296       -0.8603136089
 O          3.0296516212        2.0160907398       -1.8486073386
 O          1.1315881992        0.4563122091        2.1913147201
 C          0.9672604004        2.4829552596        0.2803852306
 C         -0.2822546494        2.0666499899       -0.4585210701
 C         -0.2460656788        1.7576436703       -1.8147246001
 C         -1.3817089286        1.3141330706       -2.4671015407
 C         -2.5744175489        1.1673328806       -1.7794152813
 C         -2.6237604695        1.4874438403       -0.4307398212
 C         -1.4852956497        1.9378472999        0.2215790894
 H         -1.5302668401        2.1490981797        1.2818869594
 N         -3.8541424098        1.2892426303        0.2634482982
 S         -3.8756238004       -0.1847571899        1.0928415278
 O         -5.2677758905       -0.4806914698        1.3499855571
 O         -3.0396466009       -0.1108992804        2.2726217782
 C         -3.2058087600       -1.3346165797       -0.0843278922
 C         -4.0549958197       -1.9048833694       -1.0118693627
 C         -3.5317836694       -2.7859874292       -1.9443340127
 C         -2.1762142095       -3.0772503494       -1.9320527722
 C         -1.3382581098       -2.4965832998       -0.9921043017
 C         -1.8535293101       -1.6137297699       -0.0568463817
 H         -1.2318516204       -1.1394738102        0.6883975287
 H         -0.2840766399       -2.7255388499       -0.9839909113
 H         -1.7661681393       -3.7623718493       -2.6570945422
 H         -4.1792337692       -3.2415888189       -2.6759976231
 H         -5.1019033697       -1.6518694392       -0.9757290731
 H         -4.0289831200        2.0160609401        0.9463854683
 H         -3.4647268788        0.8110217909       -2.2709323818
 H         -1.3358268382        1.0730086809       -3.5177242808
 H          0.6891320214        1.8544651303       -2.3455838897
 H          0.7107172799        2.5594997093        1.3464480005
 C          1.4582261608        3.8363174196       -0.1898541488
 C          0.7605146307        5.0676258396        0.3022284312
 C          2.1428887805        4.7457045093        0.7836082717
 H          2.9679008707        5.3465224992        0.4322473622
 H          2.2606534800        4.3952610690        1.7989826917
 H          0.6324898511        5.8937748998       -0.3798570187
 H         -0.0587067996        4.9377849695        0.9937532208
 H          1.8229341112        3.8366825198       -1.2078647187
