  62
        -98.94134615
 C         -2.5150140903       -1.0800730501        0.0930106302
 C         -2.6245854904        0.3152296300       -0.1184660194
 C         -3.8533563603        0.9433520299        0.3887996110
 C         -4.7678312301        0.1881319097        1.0244768710
 C         -6.0862610100        0.6880116196        1.5383953214
 C         -7.1869120502        0.5406261599        0.4783272116
 C         -6.7988064806        1.0880368302       -0.8951730183
 H         -5.9874052406        0.4817677603       -1.3042191686
 H         -7.6607801107        0.9572702204       -1.5528845381
 C         -6.3758343605        2.5637258102       -0.8940919280
 H         -6.8597316607        3.0678188704       -1.7332999178
 H         -6.7237088403        3.0484490700        0.0187935422
 C         -4.8707682506        2.7922875302       -1.0457335983
 H         -4.7061350006        3.8538963103       -1.2489239081
 H         -4.4999827008        2.2333627104       -1.9086957685
 C         -4.0140379103        2.4217129799        0.1715842314
 H         -3.0054101603        2.8098570300       -0.0000353687
 H         -4.4175896401        2.9016977597        1.0655587316
 H         -8.0815980902        1.0529241398        0.8366123420
 H         -7.4228737903       -0.5204540101        0.3697124114
 H         -5.9846714599        1.7316047995        1.8297662417
 H         -6.3585103298        0.0998678194        2.4163981813
 O         -4.6137362501       -1.1445248403        1.2317265906
 C         -3.4905841902       -1.8112947402        0.7708622402
 O         -3.4747276101       -3.0322054203        1.0268595199
 O         -1.7466597705        1.0034063001       -0.7031894695
 C         -1.2886841505       -1.8293329899       -0.3994111003
 C         -0.0587223903       -1.2418962701        0.2491175696
 C          0.0097887000       -1.2232851105        1.6406687996
 C          1.0936762902       -0.6596797906        2.2821076395
 C          2.1381667200       -0.1102051605        1.5564327094
 C          2.0852938897       -0.1282063501        0.1703879894
 C          0.9915348495       -0.7040541999       -0.4727147105
 H          0.9591650993       -0.7047591797       -1.5506758905
 N          3.1277556895        0.3827376601       -0.6101771507
 S          4.2807358196        1.5160979300       -0.1947230507
 O          3.9510349699        2.1846941497        1.0400143596
 O          4.4495123894        2.3514566903       -1.3625608805
 C          5.7493668797        0.5253214199        0.0212595687
 C          5.8441619699       -0.3206222104        1.1089114485
 C          6.9809685199       -1.0987774604        1.2582670181
 C          8.0020984197       -1.0197156102        0.3234379378
 C          7.8932903895       -0.1670017199       -0.7639733519
 C          6.7570540994        0.6113532501       -0.9193596615
 H          6.6315567093        1.2888951203       -1.7481233913
 H          8.6876698493       -0.1057464197       -1.4904184321
 H          8.8860547297       -1.6259476002        0.4438813775
 H          7.0651656701       -1.7640887506        2.1025946379
 H          5.0360066900       -0.3613565305        1.8200459387
 H          2.9308472993        0.4125812403       -1.5980656007
 H          2.9577128501        0.3735795294        2.0601551993
 H          1.1291124604       -0.6404205209        3.3613086095
 H         -0.8092669999       -1.6442032706        2.2087270297
 H         -1.4010978104       -2.8634064100       -0.0438244505
 C         -1.2504487308       -1.8355870396       -1.9128443803
 C         -0.5062396810       -2.9131951194       -2.6411716207
 C         -2.0047719910       -2.8985340794       -2.6513851704
 H         -2.5133478912       -2.6293715091       -3.5651274302
 H         -2.5306105508       -3.6347714795       -2.0608209604
 H          0.0133406288       -2.6576834592       -3.5524407008
 H         -0.0115555808       -3.6663566395       -2.0469614410
 H         -1.2549413909       -0.8375429895       -2.3364176800
