  62
        -98.93658770
 C         -2.2815482521       -0.6959927282       -0.2888851146
 C         -3.3051601761       -0.6821844600        0.6956564101
 C         -4.0442682520        0.5742071722        0.8524921610
 C         -3.7134023649        1.6378375877        0.0986804081
 C         -4.3473888323        3.0009956979        0.1592995712
 C         -5.6354583402        3.1300955909       -0.6652189691
 C         -6.8536310350        2.4107576578       -0.0848606390
 H         -6.9872257192        2.7069793478        0.9559796870
 H         -7.7268658733        2.7619002705       -0.6381975128
 C         -6.7904610463        0.8800462577       -0.1824210099
 H         -7.7452560874        0.4986157083       -0.5512680921
 H         -6.0287918183        0.5924405468       -0.9109342786
 C         -6.5006298806        0.1716963980        1.1409763364
 H         -6.4419825476       -0.9027099004        0.9490858774
 H         -7.3241637606        0.3446982708        1.8372407860
 C         -5.1921750710        0.6040523461        1.8157981846
 H         -4.9700408222       -0.1027399295        2.6189191776
 H         -5.3017205916        1.5995295846        2.2455946483
 H         -5.4421802459        2.7625005307       -1.6756641762
 H         -5.8695853464        4.1946535465       -0.7381262509
 H         -4.5515175058        3.2627983701        1.1979166444
 H         -3.6120701034        3.7033165449       -0.2391110627
 O         -2.7135369293        1.5943916655       -0.8192120592
 C         -1.9839256732        0.4338417125       -1.0512087486
 O         -1.1201416896        0.5651034020       -1.9398274979
 O         -3.5885798730       -1.6811188749        1.4086265731
 C         -1.5344406079       -2.0060299491       -0.4700488843
 C         -0.2476184818       -2.0183041285        0.3147659190
 C          0.0348419078       -3.0404436458        1.2125466169
 C          1.2261185455       -3.0487405389        1.9180081765
 C          2.1583949434       -2.0416791353        1.7438201706
 C          1.8855515059       -1.0161766040        0.8475713459
 C          0.6901544136       -1.0089271128        0.1437185927
 H          0.4835754805       -0.2115057462       -0.5556613800
 N          2.8222410343        0.0286258620        0.6632350319
 S          4.3167970719       -0.4326314390        0.0186078171
 O          4.1512559671       -0.9135634278       -1.3367884638
 O          4.9498026600       -1.3432331484        0.9375902362
 C          5.1728402964        1.1284671049        0.0237975452
 C          5.2933663644        1.8470316577       -1.1495317047
 C          5.9377967146        3.0740728579       -1.1199879380
 C          6.4432433762        3.5594376554        0.0764467706
 C          6.3130591887        2.8260279137        1.2466730448
 C          5.6716221843        1.5981924108        1.2236222790
 H          5.5533101863        0.9905605924        2.1052980625
 H          6.7086357308        3.2069249333        2.1743564234
 H          6.9435016726        4.5147851301        0.0962225165
 H          6.0417194565        3.6452985329       -2.0284898328
 H          4.8893288189        1.4287112935       -2.0577447715
 H          2.4358335615        0.7433936906        0.0579621098
 H          3.0953928304       -2.0464959404        2.2754314711
 H          1.4315607221       -3.8484318070        2.6134419111
 H         -0.6906000223       -3.8268263626        1.3626240697
 H         -2.1975965185       -2.7639712702       -0.0238397035
 C         -1.3402363361       -2.3831176964       -1.9334593617
 C         -0.0114262920       -2.4356296549       -2.6206927126
 C         -0.7318399608       -3.7067626036       -2.2921045035
 H         -1.1693229854       -4.2801785914       -3.0951323533
 H         -0.3371529016       -4.3048021031       -1.4842298851
 H          0.0296578960       -2.1106108825       -3.6494088304
 H          0.8780687944       -2.1915751278       -2.0600727409
 H         -2.1744663955       -2.0540461115       -2.5454909265
