  62
        -98.94024074
 C          1.7919572360        0.7093564765        0.8721872706
 C          2.0708379763        0.3047640908       -0.4567277136
 C          3.4788409126        0.4085665191       -0.8739614314
 C          4.3963504227        0.8750478509       -0.0086353243
 C          5.8671185069        0.9804534444       -0.2877254216
 C          6.6052801294       -0.2942203396        0.1446408696
 C          5.9570064137       -1.5841093363       -0.3584993027
 H          6.5798440159       -2.4146125636       -0.0188869106
 H          4.9798312089       -1.7013532914        0.1158673258
 C          5.7910743564       -1.6591383375       -1.8827426896
 H          6.4466297197       -0.9314942553       -2.3625823699
 H          6.1045100730       -2.6494321929       -2.2199842482
 C          4.3577550481       -1.4536642762       -2.3769425934
 H          3.6820814515       -2.1168757069       -1.8305640853
 H          4.3176966950       -1.7425645805       -3.4305832530
 C          3.8141925939       -0.0229952142       -2.2738625427
 H          4.5178707630        0.6727902679       -2.7352071556
 H          2.8745179497        0.0148991547       -2.8324543351
 H          7.6338895382       -0.2370588788       -0.2160734235
 H          6.6295831178       -0.3268079025        1.2364577873
 H          6.0188902692        1.1584628778       -1.3504600750
 H          6.2644821502        1.8274638666        0.2741748012
 O          4.0900381311        1.2588382196        1.2573877962
 C          2.7935992368        1.1608758318        1.7352253165
 O          2.6617892182        1.4970273658        2.9291799400
 H         -2.0465125130        0.0771572337        0.2609312880
 C         -1.4863528071       -0.8092712812        0.5037774004
 C         -0.2349650524       -0.7106102096        1.0886828783
 C          0.4620863919       -1.8845878282        1.3667799353
 C         -0.0696362419       -3.1168810228        1.0444511647
 C         -1.3247154676       -3.2099540062        0.4671208012
 C         -2.0355929467       -2.0479928529        0.2020812787
 N         -3.3142149037       -2.0931141193       -0.3770534962
 S         -4.5204186866       -1.1383830586        0.2848959303
 O         -4.3347609966       -0.9642649395        1.7072271167
 O         -5.7566761416       -1.7735156181       -0.1206243246
 C         -4.3850640417        0.4299669904       -0.5460971571
 C         -4.2727630296        0.4467602046       -1.9221061886
 C         -4.2079517117        1.6687608205       -2.5721221941
 C         -4.2620505307        2.8459719363       -1.8410742104
 C         -4.3777547856        2.8120320815       -0.4596425363
 C         -4.4408979432        1.5928395392        0.1965647646
 H         -4.5222667002        1.5189823483        1.2695076818
 H         -4.4163729986        3.7282576204        0.1080519773
 H         -4.2104146716        3.7958046744       -2.3497762627
 H         -4.1140653657        1.7005259922       -3.6456148217
 H         -4.2336761282       -0.4872676846       -2.4570958595
 H         -3.6516133590       -3.0217986866       -0.5854338108
 H         -1.7460736452       -4.1731799127        0.2212931186
 H          0.4911527462       -4.0159551654        1.2531040428
 H          1.4382182593       -1.8144559043        1.8289332661
 C          0.3929993212        0.6121256869        1.4555482211
 H          0.5409339040        0.6143811419        2.5490255538
 C         -0.4983328308        1.8043096533        1.1373347623
 C          0.0830790760        3.1457856847        0.8076411527
 C         -0.6211754106        2.3543897350       -0.2510174191
 H         -1.5920745453        2.6907125203       -0.5844145680
 H         -0.0320399721        1.8845634518       -1.0220390642
 H         -0.4027376279        4.0235626980        1.2063817217
 H          1.1593087274        3.2279353509        0.7585563945
 H         -1.3978211876        1.8096425097        1.7464932879
 O          1.2036605827       -0.1233774847       -1.2603542470
