  62
        -98.94457805
 C         -2.6210205587       -0.9980994398        0.2065924382
 C         -2.5219707535       -0.1030256610       -0.8864377718
 C         -3.0043993384        1.2648237381       -0.6445770679
 C         -3.5458396000        1.5805104621        0.5447944035
 C         -4.0304027507        2.9452015671        0.9370398885
 C         -2.9229423302        3.7531726488        1.6273608647
 C         -1.5907294629        3.7539180327        0.8763686860
 H         -0.9029836744        4.3919641532        1.4359628689
 H         -1.1635372515        2.7476582243        0.8847839363
 C         -1.6752582573        4.2493009991       -0.5738961533
 H         -0.8370209297        4.9240045352       -0.7602290784
 H         -2.5933825176        4.8202780525       -0.7200060267
 C         -1.5917265687        3.1416121764       -1.6262071356
 H         -1.4155131329        3.6092694380       -2.5992021535
 H         -0.7284159912        2.5034563759       -1.4117545597
 C         -2.8392733194        2.2576264778       -1.7600517555
 H         -3.7266235773        2.8866677064       -1.8558886007
 H         -2.7346689088        1.6687314807       -2.6760141259
 H         -3.2716794126        4.7803521754        1.7491522207
 H         -2.7532534614        3.3307657175        2.6202994186
 H         -4.8652621882        2.8263132772        1.6297997240
 H         -4.3784898768        3.4700975645        0.0496960494
 O         -3.6774380148        0.6818482855        1.5526366323
 C         -3.1888158192       -0.6054563057        1.4236478913
 O         -3.3301866116       -1.3078854055        2.4443515129
 O         -2.0608779413       -0.4042531756       -2.0214305480
 C         -2.0671760675       -2.4174854097        0.1776032164
 C         -0.5712751747       -2.3370448994        0.3662399486
 C          0.0235541583       -2.7179663040        1.5636643902
 C          1.3819902531       -2.5431207426        1.7639674828
 C          2.1705884698       -1.9636510030        0.7850527290
 C          1.5825975686       -1.5766471843       -0.4110493138
 C          0.2309901316       -1.7884236244       -0.6243438692
 H         -0.2162664917       -1.4630040986       -1.5516167321
 N          2.3640157117       -0.9092671403       -1.3874356884
 S          2.6971532755        0.6879965691       -0.9500666947
 O          1.6551046851        1.2344702922       -0.1098182747
 O          2.9631899003        1.3896476746       -2.1871853493
 C          4.2116874450        0.5321478542       -0.0279066269
 C          4.2341736729        0.8260789022        1.3208843883
 C          5.4229829866        0.6765217798        2.0185481168
 C          6.5604974394        0.2372609293        1.3584947611
 C          6.5213104215       -0.0523556962        0.0024128201
 C          5.3366014757        0.0958108519       -0.7006403078
 H          5.2602216282       -0.1127618152       -1.7546790454
 H          7.4079677229       -0.3936481304       -0.5071014202
 H          7.4831377169        0.1199169729        1.9046629594
 H          5.4550754758        0.9008372408        3.0726710834
 H          3.3228664139        1.1583712117        1.7921856804
 H          1.9066188916       -0.8961384900       -2.2901697711
 H          3.2248496079       -1.8023660987        0.9423748068
 H          1.8283941600       -2.8457926743        2.6988948150
 H         -0.5944586854       -3.1288446284        2.3491053097
 H         -2.4933696758       -2.9219949296        1.0546138941
 C         -2.4564157549       -3.1977276007       -1.0610985915
 C         -2.3805321758       -4.6936359933       -1.0261701992
 C         -3.7143573567       -4.0107273812       -1.0455159779
 H         -4.3075972872       -4.0569124821       -1.9463619329
 H         -4.2999180546       -4.0071087371       -0.1375696007
 H         -2.0559357384       -5.2133211353       -1.9144568228
 H         -2.0624666498       -5.1557712204       -0.1039116987
 H         -2.2024495574       -2.7000526213       -1.9872705249
