  62
        -98.93719068
 C         -1.6004996498       -1.2691528594       -0.5857177543
 C         -1.6453718012        0.0226255586       -0.0080955403
 C         -2.9596637787        0.4566250620        0.4907710645
 C         -4.0168125859       -0.3693105297        0.3997750833
 C         -5.4129918452       -0.1050985432        0.8984495333
 C         -6.1764702837        1.0410539118        0.2070753467
 C         -6.0668130637        2.3947558203        0.9197928588
 H         -7.0400278372        2.8887558321        0.8865665257
 H         -5.8407140418        2.2202724696        1.9725167216
 C         -5.0478085394        3.3774963009        0.3348846903
 H         -5.4682125079        3.8338382073       -0.5641903131
 H         -4.8944944927        4.1739286034        1.0664172608
 C         -3.6898925545        2.7859803648       -0.0443874763
 H         -3.0040245946        3.6106271085       -0.2482864311
 H         -3.7825262452        2.2225857104       -0.9758527235
 C         -3.0724720409        1.8571159086        1.0192797152
 H         -2.0578256785        2.1831733786        1.2588724439
 H         -3.6608512833        1.8751349002        1.9356120719
 H         -7.2284443285        0.7521500955        0.1864889801
 H         -5.8447224413        1.1264822697       -0.8272568710
 H         -5.3709871515        0.0838022720        1.9736563166
 H         -5.9573691177       -1.0392069703        0.7455046911
 O         -3.9249307355       -1.6135539521       -0.1450409645
 C         -2.7268198910       -2.0912569933       -0.6471472300
 O         -2.7907487974       -3.2467682179       -1.1137578041
 O         -0.6489999060        0.7844499166        0.0881449308
 C         -0.2961400607       -1.8373577739       -1.1222462557
 C          0.6342839005       -2.0738812513        0.0432296012
 C          0.3024175542       -3.0533573430        0.9767688825
 C          1.1135634775       -3.2886928450        2.0694511121
 C          2.2611195162       -2.5381642630        2.2655118925
 C          2.5965038539       -1.5537924955        1.3459693346
 C          1.7932909514       -1.3404249651        0.2332470366
 H          2.0764516064       -0.5865623961       -0.4788155379
 N          3.7583987571       -0.7741656677        1.5001518358
 S          3.5761310017        0.9009436918        1.5343989406
 O          4.8096744375        1.3753614179        2.1293651902
 O          2.3634084919        1.2817870803        2.2196085613
 C          3.5418001410        1.3946470127       -0.1743432312
 C          2.3904335791        1.9287088130       -0.7184985480
 C          2.3993471845        2.3036667200       -2.0535717826
 C          3.5474615779        2.1392118394       -2.8132466376
 C          4.6954543118        1.6037178856       -2.2481207829
 C          4.6963388100        1.2289671607       -0.9144252269
 H          5.5670685910        0.8165297716       -0.4325974590
 H          5.5855388223        1.4764279493       -2.8429240946
 H          3.5450146707        2.4288297317       -3.8525223841
 H          1.5038045390        2.7145091220       -2.4928955920
 H          1.5044507141        2.0075536323       -0.1074521398
 H          4.3409232626       -1.0630973003        2.2743133249
 H          2.8895520713       -2.7119204164        3.1264568481
 H          0.8477455613       -4.0556529094        2.7816394183
 H         -0.6035734032       -3.6262118806        0.8305484842
 H         -0.5497637912       -2.8154211753       -1.5545793254
 C          0.2892411622       -0.9560342582       -2.2047238938
 C          1.3435249514       -1.5026456626       -3.1184127984
 C         -0.0361350691       -1.2365141056       -3.6394163209
 H         -0.1845770400       -0.4005768905       -4.3061107137
 H         -0.6760056923       -2.0811356566       -3.8505754521
 H          2.1454315228       -0.8485697737       -3.4257493061
 H          1.6414859814       -2.5303533510       -2.9761862673
 H          0.3666393325        0.0822869917       -1.9078180746
