  62
        -98.94016040
 C         -2.2553844827       -0.9818599119        0.4322787088
 C         -2.2979210171        0.0880491328       -0.4962237961
 C         -3.1975445628        1.1973428539       -0.1461014188
 C         -3.8607511574        1.1848686451        1.0232413628
 C         -4.7985580444        2.2494813480        1.5239546607
 C         -6.2309479681        2.1192185161        0.9879304697
 C         -6.4119700763        2.4930184472       -0.4838936203
 H         -7.4861027842        2.5669010663       -0.6649700082
 H         -5.9833809704        3.4797683451       -0.6619028169
 C         -5.8134366703        1.4833427833       -1.4733428181
 H         -5.6322189576        0.5352343585       -0.9615882580
 H         -6.5338263585        1.2830802067       -2.2695695571
 C         -4.5166379477        1.9419197670       -2.1405206654
 H         -4.7147639426        2.8172447855       -2.7628927385
 H         -4.1641683758        1.1386829884       -2.7925653476
 C         -3.3887053652        2.2857813113       -1.1587754562
 H         -2.4577347997        2.3797911304       -1.7232061988
 H         -3.5964412048        3.2343596308       -0.6641793756
 H         -6.5720267957        1.0937197979        1.1484272976
 H         -6.8639632956        2.7768235753        1.5882081984
 H         -4.8272437182        2.1521251723        2.6114847852
 H         -4.4030503920        3.2343317312        1.2737229443
 O         -3.7288078163        0.1753642080        1.9260011560
 C         -2.9388497380       -0.9291668929        1.6492394203
 O         -2.9135146795       -1.7790976045        2.5631049122
 H          0.2502412816       -0.5726288933        1.4587815924
 C          0.7012519290       -0.9249368401        0.5377581387
 C         -0.0200355679       -1.7915873976       -0.2754295128
 C          0.5697538948       -2.2407548267       -1.4487808669
 C          1.8401360962       -1.8174714305       -1.7994535792
 C          2.5461600629       -0.9417713997       -0.9962860425
 C          1.9683113191       -0.4899536821        0.1832546776
 N          2.6696290769        0.4166095818        0.9979999027
 S          4.2528547238        0.0514263436        1.4191981158
 O          4.4722216729       -1.3758885191        1.4642219770
 O          4.4928421198        0.7772483790        2.6477747924
 C          5.2242559530        0.7785054752        0.1162701124
 C          6.1150276991       -0.0006298160       -0.5958083687
 C          6.8650513243        0.5886565626       -1.6017860966
 C          6.7125966670        1.9392405909       -1.8754116416
 C          5.8161886091        2.7085491984       -1.1484863384
 C          5.0641459967        2.1259016858       -0.1410103236
 H          4.3594624536        2.6889774273        0.4479247077
 H          5.7000975102        3.7585708723       -1.3638479106
 H          7.2956380157        2.3955254155       -2.6597311179
 H          7.5630260741       -0.0073936737       -2.1673800356
 H          6.1953208200       -1.0479136020       -0.3515678471
 H          2.1484010173        0.7249131266        1.8057382187
 H          3.5313037818       -0.6032695678       -1.2724483172
 H          2.2838405946       -2.1691016880       -2.7183999945
 H          0.0279032342       -2.9050197087       -2.1013767431
 C         -1.3939136986       -2.2092656454        0.1911628566
 H         -1.2776881588       -2.6738008020        1.1851545119
 C         -2.0432970328       -3.2576806721       -0.7004967891
 C         -3.5348534869       -3.3702061017       -0.7998048362
 C         -2.7388669599       -2.9019478207       -1.9787323133
 H         -2.6343635794       -3.5694380432       -2.8216229264
 H         -2.7800278160       -1.8592078533       -2.2493787352
 H         -3.9730598894       -4.3565974452       -0.8295092842
 H         -4.1286473004       -2.6466377420       -0.2597434737
 H         -1.4944459980       -4.1944128123       -0.6871667013
 O         -1.6287298018        0.1304662769       -1.5590320416
