  62
        -98.93449040
 C         -1.8531611309       -1.5905187086        0.3863582399
 C         -1.9227091904       -0.4530326185        1.2283564798
 C         -2.9898045698        0.5254505621        0.9529353096
 C         -3.8184787199        0.2972716724       -0.0827477204
 C         -4.9339153294        1.1823762530       -0.5656512106
 C         -4.4191180187        2.3785565927       -1.3908301507
 C         -3.0999316184        2.9826171720       -0.9104880806
 H         -2.7571888380        3.6780107317       -1.6813097007
 H         -2.3528262988        2.1903044916       -0.8322290205
 C         -3.1749069081        3.7519381521        0.4071884393
 H         -3.7914993576        4.6423554925        0.2612493692
 H         -2.1651339079        4.0877385216        0.6568091194
 C         -3.7427261486        2.9834651726        1.5995105793
 H         -4.8092177986        2.8217625031        1.4666423193
 H         -3.6333141083        3.6224481026        2.4812200793
 C         -3.0411801493        1.6687605222        1.9370184195
 H         -3.4951621696        1.2674311125        2.8521610195
 H         -1.9976782592        1.8753603117        2.1989426896
 H         -5.1914057083        3.1489165031       -1.4081501208
 H         -4.2645109688        2.0331286425       -2.4154613006
 H         -5.5280394093        1.5125021834        0.2820404393
 H         -5.5750753097        0.5698327333       -1.2027872606
 O         -3.6952485604       -0.7906206777       -0.8891913803
 C         -2.7177468110       -1.7545856082       -0.6961461102
 O         -2.7442525314       -2.6714942683       -1.5364744901
 O         -1.1191583604       -0.2624962388        2.1816382398
 C         -0.7479614715       -2.5881220491        0.6909097500
 C          0.4993005288       -2.1278504899       -0.0181455599
 C          0.5432500489       -2.0289643900       -1.4062331199
 C          1.6716301893       -1.5385406807       -2.0371120099
 C          2.7659725294       -1.1159160512       -1.3008601298
 C          2.7212698193       -1.1914557111        0.0844335702
 C          1.5974649890       -1.7083905304        0.7160441201
 H          1.5631076789       -1.7531935503        1.7959150901
 N          3.8069138195       -0.7113753416        0.8385263802
 S          4.3910809103        0.8024456381        0.4211603001
 O          5.3410689903        0.6692714775       -0.6553263198
 O          4.9107679706        1.3634844279        1.6485909501
 C          2.9731002109        1.7282827888       -0.1468526901
 C          1.8518080309        1.7897363595        0.6567923698
 C          0.7443597013        2.4892496900        0.2077057197
 C          0.7765785217        3.1210104399       -1.0255231704
 C          1.9127630517        3.0575792792       -1.8169148903
 C          3.0207780913        2.3509965787       -1.3776511401
 H          3.9196306113        2.2650608581       -1.9664554601
 H          1.9356221920        3.5502120591       -2.7755968703
 H         -0.0904840180        3.6628311203       -1.3690688205
 H         -0.1424614988        2.5216411306        0.8206954796
 H          1.8373848605        1.2926210896        1.6135884199
 H          3.6682910894       -0.7779763614        1.8367000302
 H          3.6481937397       -0.7197370617       -1.7774709898
 H          1.6975346494       -1.4734306408       -3.1141702899
 H         -0.3223604212       -2.3311651996       -1.9770178100
 H         -0.5687776815       -2.4842244491        1.7724796600
 C         -1.1256093923       -4.0374456690        0.4248696401
 C         -0.3593828527       -4.9343078494       -0.4975840897
 C         -0.2674249429       -5.1348358294        0.9830267603
 H         -0.7457319934       -5.9959844891        1.4245754003
 H          0.6529152572       -4.8444191898        1.4680518103
 H         -0.9224104930       -5.6439188292       -1.0845529997
 H          0.5019037376       -4.5335890100       -1.0086165197
 H         -2.1971175824       -4.1981649784        0.4607947801
