  62
        -98.94209517
 C         -0.8391223487       -1.2119624209        0.7120199290
 C         -1.4100832693       -1.0139722604       -0.5661242906
 C         -2.2409086200        0.1924070692       -0.7326253195
 C         -2.4035162201        1.0344027385        0.3044712211
 C         -3.1470816508        2.3506703380        0.4097719922
 C         -4.1883275514        2.7457566181       -0.6345275871
 C         -5.4322416609        1.8596389074       -0.6706966772
 H         -5.9918764907        2.0051328665        0.2565915431
 H         -6.0630708314        2.1955330176       -1.4966633968
 C         -5.1708477201        0.3633220176       -0.8238790783
 H         -4.6514109596       -0.0119655126        0.0600898613
 H         -6.1393539199       -0.1421351029       -0.8671336182
 C         -4.3813610004       -0.0384093711       -2.0689487988
 H         -4.4236439298       -1.1279862311       -2.1471160895
 H         -4.8575971510        0.3788132492       -2.9582887684
 C         -2.8950310306        0.3644070197       -2.0719635492
 H         -2.3615738305       -0.2994454195       -2.7589421198
 H         -2.7542997613        1.3797392500       -2.4372436386
 H         -3.7324703918        2.7987619990       -1.6191620373
 H         -4.5122937619        3.7590335677       -0.3810013563
 H         -3.6173668904        2.3459499871        1.3982143624
 H         -2.3774908412        3.1309694584        0.4347616524
 O         -1.8111171295        0.8109218580        1.5147750707
 C         -1.0132346688       -0.2959529817        1.7458731897
 O         -0.5257095883       -0.3488238721        2.8928677995
 H          1.4934138907       -0.2753810293        0.3457846487
 C          1.8642424910       -1.1492319088       -0.1702491520
 C          1.2362540017       -2.3718061393        0.0303966475
 C          1.7352959421       -3.4888373686       -0.6266760534
 C          2.8170795417       -3.3700238174       -1.4824086438
 C          3.4125085909       -2.1428479969       -1.7097404532
 C          2.9275106506       -1.0209506276       -1.0473393723
 N          3.5064763798        0.2449454428       -1.2308422517
 S          2.5092018190        1.5876413423       -1.3171980504
 O          1.2470439489        1.2856157720       -1.9503699902
 O          3.3222014581        2.5910130332       -1.9747854201
 C          2.2540820093        2.0802030811        0.3731198700
 C          3.3363681896        2.1456388911        1.2275983696
 C          3.1278013199        2.5519980602        2.5357928599
 C          1.8517018699        2.8869878892        2.9628489206
 C          0.7767209796        2.8228216491        2.0903610210
 C          0.9794931893        2.4174906201        0.7814243807
 H          0.1713453491        2.3325907101        0.0702688109
 H         -0.2186261304        3.0664271083        2.4263755716
 H          1.6889899001        3.1948677484        3.9835715309
 H          3.9588510901        2.6019370702        3.2208080397
 H          4.3120392796        1.8742209019        0.8605070090
 H          4.2410568695        0.2811171937       -1.9230293520
 H          4.2413015706       -2.0491943260       -2.3949468335
 H          3.1923891520       -4.2442605969       -1.9925139645
 H          1.2717950327       -4.4502989589       -0.4777435439
 C          0.0541016321       -2.4116091606        0.9688918179
 H          0.4307611625       -2.2950998510        1.9961505778
 C         -0.7435009072       -3.6963062310        0.8833224374
 C         -0.3546764562       -4.8857547013        1.7076819165
 C         -1.5841137165       -4.1029494522        2.0550613774
 H         -2.5508725363       -4.5455713826        1.8675866775
 H         -1.5576216565       -3.4657384828        2.9272369678
 H         -0.4800391558       -5.8705524611        1.2833670159
 H          0.5052242940       -4.7879565012        2.3528463162
 H         -1.1493539275       -3.8669813406       -0.1072065026
 O         -1.2386777092       -1.8070960197       -1.5286802212
