  62
        -98.95003687
 C         -1.9045640626       -1.0395061834        0.0234832733
 C         -1.3302477431       -1.8178078985       -1.0117411237
 C         -0.2573751451       -2.7336758875       -0.6061136800
 C          0.0876497955       -2.8263579972        0.6911260963
 C          1.1160201260       -3.7586728788        1.2727946507
 C          2.5597734125       -3.2436278911        1.2000894686
 C          3.1806677229       -3.2516884061       -0.1968004844
 H          4.2516471529       -3.0789981214       -0.0753919845
 H          3.0577315057       -4.2374046764       -0.6467755285
 C          2.6143451714       -2.1799256308       -1.1374168157
 H          2.0948234055       -1.4153891360       -0.5557575511
 H          3.4301399364       -1.6685097278       -1.6544593079
 C          1.6626778815       -2.7013926422       -2.2141883393
 H          2.2109386572       -3.3352080887       -2.9155544139
 H          1.2854895865       -1.8347667493       -2.7648417722
 C          0.4627472397       -3.4935428707       -1.6777212870
 H         -0.2378746300       -3.6521675943       -2.5015910154
 H          0.7906413033       -4.4643376788       -1.3050044188
 H          2.5944574341       -2.2286262446        1.6020144851
 H          3.1647925703       -3.8824795423        1.8472955251
 H          0.8514035307       -3.8915650169        2.3240146811
 H          1.0503214620       -4.7262181619        0.7739886533
 O         -0.5096723354       -2.0835242606        1.6597634461
 C         -1.4818292740       -1.1402985384        1.3486907570
 O         -1.8805948744       -0.4819805420        2.3272545128
 O         -1.7054481337       -1.7565521809       -2.2135549906
 C         -2.9593937702       -0.0048277964       -0.3337938921
 C         -2.3818592390        1.3668213889       -0.0793184975
 C         -2.9283612794        2.2907018222        0.8008391335
 C         -2.2947419649        3.5020394953        1.0203789298
 C         -1.1051313078        3.8080197166        0.3856512443
 C         -0.5543672346        2.8945727144       -0.5078275543
 C         -1.2083592682        1.6967518234       -0.7483720113
 H         -0.7856445320        0.9964457946       -1.4546568533
 N          0.6465124815        3.1841612714       -1.1782793218
 S          1.8576260578        2.0470670354       -1.3562716790
 O          2.9604706042        2.7895310782       -1.9264751697
 O          1.3791556931        0.9270381336       -2.1221050848
 C          2.2903170224        1.5414798687        0.2989848556
 C          3.4470422206        2.0372909973        0.8685212456
 C          3.7693600605        1.6700479258        2.1650348404
 C          2.9265948229        0.8276794243        2.8746563015
 C          1.7651054516        0.3432860834        2.2927804758
 C          1.4453783324        0.6974438787        0.9913673830
 H          0.5489731697        0.3271973246        0.5178446575
 H          1.0942603987       -0.3038990840        2.8373849406
 H          3.1728846150        0.5440802491        3.8857452369
 H          4.6729458369        2.0431013994        2.6194988764
 H          4.0712755345        2.6896770372        0.2797144157
 H          1.0440128997        4.0833197129       -0.9474497392
 H         -0.6051071474        4.7459015932        0.5739205511
 H         -2.7269246519        4.2121999021        1.7087870083
 H         -3.8420253535        2.0595486787        1.3225034075
 H         -3.1174350447       -0.1133491138       -1.4169682164
 C         -4.2653826393       -0.2707368644        0.3816557762
 C         -5.5470520202        0.2610666834       -0.1844361762
 C         -5.2559004099       -1.2077373744       -0.2392101300
 H         -5.8128549442       -1.8701661012        0.4062604005
 H         -4.9972589539       -1.6446021611       -1.1929287468
 H         -6.3088573255        0.6066545134        0.4976854259
 H         -5.4907092702        0.8230867750       -1.1044760534
 H         -4.1555462747       -0.3052013081        1.4591923535
