  62
        -98.94336749
 C         -1.2275328912       -0.6500918729        0.5934288901
 C         -1.9433686993       -0.4866178355       -0.6180842783
 C         -2.9432382172        0.5906248765       -0.6247868256
 C         -3.0554993440        1.4124186230        0.4331297966
 C         -4.0115325839        2.5669688489        0.5630941344
 C         -5.4158061744        2.1638489859        1.0342154812
 C         -6.2654571789        1.4296193080       -0.0039851249
 H         -7.2869990531        1.4027826753        0.3803844440
 H         -6.2809405587        2.0048009485       -0.9302504852
 C         -5.8099280308       -0.0070561599       -0.2954145259
 H         -5.1485540321       -0.3483059380        0.5043082483
 H         -6.6773456126       -0.6707456109       -0.2980615379
 C         -5.0980539226       -0.1865833756       -1.6363779728
 H         -4.7894665719       -1.2314652310       -1.7232435393
 H         -5.7925765532        0.0279372091       -2.4514910089
 C         -3.8523466387        0.6922083729       -1.8121232661
 H         -3.2981966372        0.3365153399       -2.6844236967
 H         -4.1425512980        1.7288989341       -1.9825638912
 H         -5.9386266771        3.0801182933        1.3180762999
 H         -5.3191716540        1.5456944236        1.9298766357
 H         -3.5797808325        3.2456367696        1.3021937282
 H         -4.0813763154        3.0934491129       -0.3893978123
 O         -2.2662688281        1.2945820524        1.5345219213
 C         -1.3460541273        0.2644910209        1.6425325773
 O         -0.6904135168        0.2760227671        2.7048483621
 H          1.0115557994        0.3920794754       -0.2181413165
 C          1.3269271091       -0.4959643834       -0.7448484773
 C          0.7703198161       -1.7222710091       -0.4055988485
 C          1.1526281008       -2.8450703951       -1.1269667560
 C          2.0654555725       -2.7301890647       -2.1618159777
 C          2.6333100108       -1.5104129235       -2.4813926928
 C          2.2539836917       -0.3800260601       -1.7658739330
 N          2.8020079845        0.8809977083       -2.0467916417
 S          3.0664336840        1.9532231333       -0.7928678757
 O          1.8283384525        2.5685373869       -0.3825064728
 O          4.0764933655        2.8559178739       -1.3039530142
 C          3.7549688285        0.9614947723        0.5217015256
 C          5.0042587011        0.4093741528        0.3112041574
 C          5.5543082797       -0.4033501063        1.2881077595
 C          4.8467327688       -0.6544783223        2.4541925267
 C          3.5977385381       -0.0882390511        2.6538372452
 C          3.0434544824        0.7290615168        1.6806393572
 H          2.0700992484        1.1766638380        1.8122447642
 H          3.0403042548       -0.2792996211        3.5572643783
 H          5.2702330982       -1.2925262865        3.2136260783
 H          6.5281488455       -0.8403302674        1.1375647319
 H          5.5278301089        0.6363173526       -0.6031668870
 H          3.5549730510        0.8832192890       -2.7186069022
 H          3.3502371578       -1.4268716756       -3.2835297374
 H          2.3458948833       -3.6079935197       -2.7238389259
 H          0.7220108588       -3.8053552631       -0.8961729776
 C         -0.1854405730       -1.7414821105        0.7626018445
 H          0.3918069551       -1.4376995781        1.6525315253
 C         -0.7538623814       -3.1193265851        1.0695572232
 C         -2.1332559748       -3.2814755486        1.6341014065
 C         -1.8337890534       -3.7478094953        0.2428051250
 H         -1.7850877751       -4.8116713217        0.0610606614
 H         -2.2191881604       -3.1779143191       -0.5869714052
 H         -2.2885714264       -4.0199536666        2.4064926364
 H         -2.7314864218       -2.3896299898        1.7562889324
 H          0.0032452324       -3.7883341194        1.4667414627
 O         -1.7702949413       -1.1932079810       -1.6440313658
