  62
        -98.94549201
 C         -1.7222502807       -1.4467153197        0.2105619953
 C         -1.5130743125       -0.1328405025       -0.2756376426
 C         -2.5083884973        0.8629293245        0.1435740848
 C         -3.5126957660        0.5060534333        0.9639717825
 C         -4.5874749393        1.4148448257        1.4960640318
 C         -5.7689425402        1.6145064986        0.5368190798
 C         -5.4769360450        2.4912911700       -0.6815870346
 H         -6.4375789990        2.7254247790       -1.1447975653
 H         -5.0367203212        3.4330932886       -0.3527253192
 C         -4.5699868774        1.8345633210       -1.7316240856
 H         -4.9929879351        1.9914677741       -2.7265639814
 H         -4.5410331306        0.7554485587       -1.5636875141
 C         -3.1384247637        2.3702484652       -1.7571775323
 H         -3.1472367814        3.4210960350       -2.0547562635
 H         -2.5781215095        1.8110990921       -2.5106774140
 C         -2.3923583145        2.2458027338       -0.4221397590
 H         -1.3320198766        2.4350743546       -0.6020012552
 H         -2.7692852082        2.9806952808        0.2884990128
 H         -6.5763183296        2.0797574651        1.1071022882
 H         -6.1196715302        0.6344047234        0.2051798152
 H         -4.1563822241        2.3835189942        1.7499593555
 H         -4.9623152318        0.9503812201        2.4106743645
 O         -3.6573604224       -0.7612445654        1.4362785463
 C         -2.7794610956       -1.7651841547        1.0647487379
 O         -3.0381399350       -2.8821016984        1.5573252523
 O         -0.5557948257        0.1994898275       -1.0209716454
 C         -0.7641660139       -2.5677477536       -0.1585663020
 C          0.5978631778       -2.2102073486        0.3820607653
 C          0.8104963094       -2.2743528754        1.7565547994
 C          2.0195620442       -1.8886383607        2.3032561294
 C          3.0374546043       -1.4151872101        1.4928622173
 C          2.8292256555       -1.3348007264        0.1230104082
 C          1.6217705576       -1.7461882488       -0.4268681314
 H          1.4764095013       -1.6745301936       -1.4926060349
 N          3.8479647061       -0.8372157869       -0.7119432105
 S          4.5387582828        0.6374881732       -0.3251481138
 O          5.2132219830        1.0621624786       -1.5311746730
 O          5.3700965301        0.4782889860        0.8421483776
 C          3.1825157344        1.7356999105        0.0392471993
 C          2.5310730051        2.3448033501       -1.0141200921
 C          1.4622414096        3.1832584982       -0.7471424799
 C          1.0572542315        3.3872738286        0.5627661384
 C          1.7157716960        2.7609610723        1.6089581851
 C          2.7911997175        1.9274466059        1.3484800806
 H          3.3358170267        1.4339233478        2.1363866865
 H          1.3940525527        2.9182650419        2.6261227403
 H          0.2232610642        4.0394617762        0.7705554740
 H          0.9460829918        3.6690562098       -1.5599066962
 H          2.8788548897        2.1667880497       -2.0189738602
 H          3.5951698953       -0.8462609480       -1.6899558256
 H          3.9844161179       -1.1018170482        1.9015816018
 H          2.1719850282       -1.9520387782        3.3701749137
 H          0.0072373159       -2.6242745933        2.3909095978
 H         -1.1217795963       -3.4613778040        0.3701669929
 C         -0.7898800700       -2.8385959789       -1.6480168236
 C         -0.2318458726       -4.1252715189       -2.1756187202
 C         -1.7120041324       -3.8907647420       -2.1827963931
 H         -2.2022057630       -3.7141369531       -3.1285889426
 H         -2.3205901925       -4.4294750870       -1.4711069136
 H          0.2941510938       -4.1142786060       -3.1182111739
 H          0.1671189070       -4.8261474251       -1.4579943408
 H         -0.6630850806       -1.9444633905       -2.2465622823
