  62
        -98.94308524
 C         -1.8555624588       -0.7987576757        0.7273321161
 C         -2.8253872772       -1.1975777121       -0.2252161127
 C         -4.1673009403       -0.6176786006       -0.0560884722
 C         -4.4048609504        0.2254616299        0.9638709194
 C         -5.7056472904        0.9317249992        1.2111921474
 C         -5.7369777215        2.2985277301        0.5129326594
 C         -5.3158081551        2.2524675409       -0.9560339380
 H         -5.4073126421        3.2664078548       -1.3516684782
 H         -4.2594230230        1.9796709713       -1.0155003275
 C         -6.1382568739        1.2888607615       -1.8230029762
 H         -7.0747345616        1.0457200447       -1.3196927705
 H         -6.3939626909        1.7917199514       -2.7580460647
 C         -5.4124313060       -0.0048683052       -2.1965776866
 H         -4.4316690294        0.2336682898       -2.6156337737
 H         -5.9904162126       -0.5046452333       -2.9784070743
 C         -5.2170809710       -1.0124531825       -1.0568066641
 H         -6.1718577381       -1.1975412126       -0.5608554906
 H         -4.8709877294       -1.9508900222       -1.4993590057
 H         -6.7478145098        2.7029872096        0.5913182309
 H         -5.0592277661        2.9729177556        1.0418319753
 H         -6.5243562914        0.3104101259        0.8534347715
 H         -5.8171706420        1.0804886567        2.2865997696
 O         -3.4556825983        0.5697858547        1.8716646732
 C         -2.1661802143        0.0777430740        1.7714352234
 O         -1.3976316182        0.4798315929        2.6691891882
 O         -2.6082329853       -1.9966546969       -1.1726407963
 C         -0.4128321854       -1.2826227219        0.6844022741
 C          0.3499007475       -0.5245493350       -0.3762222037
 C          0.1899604441       -0.7919239225       -1.7324080849
 C          0.8793445718       -0.0540808746       -2.6767790124
 C          1.7536946749        0.9471165794       -2.2917332143
 C          1.9191874867        1.2243130678       -0.9404105451
 C          1.2154802687        0.4916285413        0.0057634467
 H          1.3363000228        0.7343312307        1.0514224336
 N          2.7996527005        2.2376968506       -0.5175031529
 S          3.9450705505        1.8646166052        0.6448764130
 O          3.3196253483        1.7006566418        1.9315226820
 O          4.9295987232        2.9189572262        0.5395166990
 C          4.6390465584        0.3203044824        0.0851091907
 C          4.1445817204       -0.8689027144        0.5807038039
 C          4.6337495440       -2.0613893179        0.0711407883
 C          5.6030767195       -2.0433848630       -0.9196196534
 C          6.0948339160       -0.8401711552       -1.4027576148
 C          5.6055885345        0.3547701813       -0.9012525940
 H          5.9656056296        1.3117974324       -1.2427037758
 H          6.8528781235       -0.8303006773       -2.1692115239
 H          5.9785548629       -2.9739640716       -1.3147606826
 H          4.2526956282       -2.9977653867        0.4464144607
 H          3.3952523950       -0.8386963649        1.3551645629
 H          3.2304463943        2.7458468176       -1.2770954906
 H          2.2954157493        1.5190399451       -3.0299273507
 H          0.7396356055       -0.2655036750       -3.7259816145
 H         -0.5038748742       -1.5578530565       -2.0398454411
 H          0.0152143737       -1.0097180250        1.6587546923
 C         -0.2979180943       -2.7843083563        0.5155072802
 C          0.9584511365       -3.4697418371        0.9568822783
 C         -0.3097536361       -3.6558807221        1.7335318141
 H         -0.8161532134       -4.6079304134        1.6805483278
 H         -0.3962534806       -3.1699914371        2.6951644134
 H          1.3275405593       -4.2964643866        0.3700362094
 H          1.7305363029       -2.8570882678        1.3973422553
 H         -0.7993433315       -3.1628546651       -0.3644636409
