  62
        -98.93798811
 C          1.9315481257        1.0849095288       -0.2134565720
 C          2.3545948201       -0.1534370977       -0.7572462785
 C          3.4942988294       -0.7925417692       -0.0709633784
 C          4.0386543954       -0.2111495001        1.0114474389
 C          5.2266763461       -0.7334194312        1.7654995644
 C          6.5356685381       -0.1543677152        1.2108065694
 C          6.6606296150       -0.2561551173       -0.3093143198
 H          5.9012826728        0.3780114293       -0.7724224618
 H          7.6344527188        0.1548582010       -0.5840020532
 C          6.5333009308       -1.6823089503       -0.8626702860
 H          7.3176251714       -1.8411331607       -1.6057670136
 H          6.6934939488       -2.4061352964       -0.0627938320
 C          5.2005123974       -1.9786831731       -1.5530423944
 H          4.9912920301       -1.2041976617       -2.2952858511
 H          5.2982489961       -2.9265962095       -2.0890921865
 C          3.9818901676       -2.1003325674       -0.6292205605
 H          4.1981089383       -2.8067376349        0.1751917950
 H          3.1533373729       -2.5001940943       -1.2219052212
 H          6.5923019221        0.9004790870        1.4890379627
 H          7.3706756868       -0.6758787000        1.6820939997
 H          5.1243340654       -0.4409174842        2.8119150582
 H          5.2414707302       -1.8197967562        1.7022885817
 O          3.5895118196        0.9654038136        1.5190274224
 C          2.5365894376        1.6347779613        0.9213149042
 O          2.2319582783        2.7082825121        1.4788388061
 O          1.8418343009       -0.7141840091       -1.7580730069
 C          0.7668185043        1.9078231729       -0.7442694561
 C         -0.4398088576        1.7108114737        0.1390232808
 C         -1.1620726361        2.8053150937        0.6018206260
 C         -2.2556908138        2.6331618869        1.4308259608
 C         -2.6622247817        1.3621281083        1.7940995658
 C         -1.9503084379        0.2608476816        1.3335101390
 C         -0.8403070970        0.4372045437        0.5200181639
 H         -0.2910797253       -0.4292958237        0.1820905804
 N         -2.3514889058       -1.0537280003        1.6640300494
 S         -3.0276859612       -1.9366882793        0.4091394032
 O         -3.4391099649       -3.1925777217        0.9954552287
 O         -2.1022142827       -2.0002770380       -0.6897173593
 C         -4.4689175904       -0.9885007350       -0.0508314353
 C         -5.6937125292       -1.3219859252        0.4938948386
 C         -6.7971717452       -0.5398296443        0.1927146017
 C         -6.6548102174        0.5640909653       -0.6344271260
 C         -5.4176985926        0.8880318009       -1.1703009133
 C         -4.3110417793        0.1066747746       -0.8771059359
 H         -3.3358707233        0.3243008601       -1.2821198740
 H         -5.3067476607        1.7454169926       -1.8142788932
 H         -7.5130329442        1.1751986289       -0.8651298441
 H         -7.7609613280       -0.7917317109        0.6049576981
 H         -5.7566581772       -2.1910075977        1.1288527221
 H         -2.9728507072       -1.0938290868        2.4610787219
 H         -3.5179213896        1.2196907578        2.4371522200
 H         -2.7982636743        3.4931099961        1.7917642096
 H         -0.8436362678        3.7989970297        0.3237112216
 H          1.0755989266        2.9608360361       -0.6316222405
 C          0.4548085461        1.6971800633       -2.2171896157
 C         -0.5901877289        0.7513348656       -2.7172001679
 C         -0.8246181145        2.2282219119       -2.7958222965
 H         -0.7941781761        2.7025324582       -3.7650156938
 H         -1.5380620989        2.6620252046       -2.1110367900
 H         -0.3708970460        0.2075922197       -3.6236757770
 H         -1.1357915804        0.1583758680       -1.9993014973
 H          1.3451609394        1.7893273643       -2.8307089246
