  62
        -98.94597633
 C         -1.1796911898       -0.9792747794       -0.4931786804
 C         -2.2761041199       -1.2373163297        0.3697076694
 C         -3.0459589599       -0.0731239899        0.8227281997
 C         -2.6538272699        1.1568235603        0.4450940202
 C         -3.3625446599        2.4312025402        0.8010585605
 C         -4.4055007999        2.8046392505       -0.2618548294
 C         -5.3349797998        1.6526929606       -0.6435915699
 H         -6.0461893598        2.0376324708       -1.3775042598
 H         -4.7507099098        0.8737145008       -1.1385038701
 C         -6.1000853899        1.0376424902        0.5365455099
 H         -6.0875268800        1.7235538099        1.3843263301
 H         -7.1435858999        0.9011638503        0.2451620497
 C         -5.5804023099       -0.3294777899        0.9852877295
 H         -5.5007056998       -0.9931445797        0.1206842093
 H         -6.3155920000       -0.7661133902        1.6665032493
 C         -4.2300603500       -0.3246134302        1.7135276596
 H         -4.2549573901        0.3968681496        2.5332621298
 H         -4.0771352200       -1.3206790603        2.1395104393
 H         -4.9956929199        3.6426540803        0.1135210408
 H         -3.8802376498        3.1335430708       -1.1613129493
 H         -3.8414975800        2.3133591398        1.7713537604
 H         -2.6209688300        3.2290761501        0.8702359408
 O         -1.5834931698        1.3726396405       -0.3563465697
 C         -0.8214019298        0.3215265407       -0.8494871400
 O          0.1144144203        0.6964905410       -1.5823211498
 H          1.5435172402       -0.4243061095       -0.2246529100
 C          1.6752415202       -1.3803953796        0.2546650797
 C          0.7900534702       -2.4143530095       -0.0131457507
 C          0.9897769902       -3.6415899097        0.6078429089
 C          2.0420930401       -3.8205715900        1.4884632289
 C          2.8948674300       -2.7733998401        1.7879713694
 C          2.7015861101       -1.5423677699        1.1718383197
 N          3.5288074400       -0.4452567400        1.4544942901
 S          2.8387669100        1.0808509300        1.5558293906
 O          3.7536317299        1.8270942597        2.3991823009
 O          1.4727233000        1.0201541198        2.0254936805
 C          2.9332706201        1.7533063805       -0.0874183092
 C          3.9639282702        1.3659000108       -0.9198645892
 C          4.0595699703        1.9429654912       -2.1754481390
 C          3.1343427803        2.8966126013       -2.5711322388
 C          2.1095350902        3.2777357410       -1.7207840388
 C          2.0053606102        2.7011774506       -0.4655024890
 H          1.2100996401        2.9546487204        0.2180542811
 H          1.3827355603        4.0109937311       -2.0317765086
 H          3.2081309104        3.3422952816       -3.5508143587
 H          4.8524997804        1.6447267714       -2.8426533991
 H          4.6610351302        0.6169260007       -0.5823007794
 H          4.2080443000       -0.5959701202        2.1865337702
 H          3.6976456400       -2.9020816803        2.4979649494
 H          2.1872470001       -4.7786389001        1.9641106687
 H          0.3020352302       -4.4512913197        0.4136049386
 C         -0.3782987097       -2.1894034992       -0.9440257907
 H         -1.0586888297       -3.0454569693       -0.8356953710
 C          0.0906558304       -2.1275063888       -2.3841376707
 C          0.3963205304       -3.4055143985       -3.1041108810
 C         -0.8181990195       -2.6088740584       -3.4734777009
 H         -0.8238629195       -2.0744578881       -4.4113136907
 H         -1.7864351496       -2.9909959886       -3.1837561011
 H          1.2286138205       -3.4217331483       -3.7904280010
 H          0.2499844004       -4.3307045487       -2.5677125114
 H          0.7104823904       -1.2663661787       -2.5958495803
 O         -2.6015896699       -2.3992466698        0.7380208390
