  62
        -98.94539784
 C         -1.6805337092       -1.4435997511        0.1540839591
 C         -1.4714257395       -0.1214501209       -0.3088064404
 C         -2.4463618197        0.8774113887        0.1553132299
 C         -3.4208287997        0.5075412382        1.0054837697
 C         -4.5075064199        1.4105237578        1.5112759999
 C         -5.7431847098        1.3529586079        0.6021395098
 C         -5.4252729298        1.5231778085       -0.8834969901
 H         -4.8396924595        0.6657104987       -1.2230058204
 H         -6.3741056297        1.4974562285       -1.4239030302
 C         -4.6749804800        2.8173413287       -1.2279744596
 H         -4.7782131402        3.5332177384       -0.4118254693
 H         -5.1366267800        3.2644260290       -2.1109545194
 C         -3.1917766899        2.6239735392       -1.5494838395
 H         -2.8157703801        3.5528436294       -1.9861548691
 H         -3.0806507497        1.8402150695       -2.3029415498
 C         -2.2888016299        2.2806106289       -0.3578825396
 H         -1.2506807399        2.3567668893       -0.6934888895
 H         -2.4494307102        3.0036132186        0.4438882507
 H         -6.4413366400        2.1301567876        0.9183583300
 H         -6.2292748196        0.3841746577        0.7391726294
 H         -4.1311931201        2.4300281578        1.5656035803
 H         -4.7895091199        1.0824865174        2.5131656398
 O         -3.5557909195       -0.7611935120        1.4701237792
 C         -2.7018564992       -1.7657437417        1.0506613789
 O         -2.9468874490       -2.8866598919        1.5402925385
 O         -0.5330672195        0.2161627695       -1.0763703802
 C         -0.7611741290       -2.5757538808       -0.2771814412
 C          0.6138581009       -2.2937587207        0.2745707690
 C          0.8615924809       -2.5386398911        1.6223631089
 C          2.0852633308       -2.2256379111        2.1838355192
 C          3.0827743607       -1.6472848606        1.4173084195
 C          2.8382274808       -1.3840391002        0.0761499895
 C          1.6173381509       -1.7239381202       -0.4922477307
 H          1.4431383609       -1.5108790899       -1.5344566606
 N          3.8364923207       -0.7791328997       -0.7133018102
 S          4.4829946704        0.6802847203       -0.2121428996
 O          5.2616164204        1.1518614308       -1.3347997494
 O          5.2039421003        0.4755769300        1.0194915304
 C          3.1044712401        1.7760475599        0.0704551407
 C          2.4219509300        1.7101711493        1.2684300106
 C          1.3451142898        2.5575936490        1.4707817108
 C          0.9756441997        3.4554170193        0.4818160511
 C          1.6673953198        3.5045742099       -0.7181584688
 C          2.7384837400        2.6529525902       -0.9304774790
 H          3.3070899301        2.6621004306       -1.8465802790
 H          1.3724824797        4.1994756001       -1.4882237186
 H          0.1440715496        4.1217418791        0.6491498513
 H          0.7973484798        2.5134593986        2.3987716508
 H          2.7432109501        1.0094980491        2.0216661804
 H          3.5755410808       -0.7074613794       -1.6868822302
 H          4.0373398106       -1.3816067106        1.8422174596
 H          2.2657258207       -2.4298032714        3.2286304391
 H          0.0747994909       -2.9701988915        2.2260501887
 H         -1.1468786788       -3.4812750710        0.2094864584
 C         -0.7979520788       -2.7757601303       -1.7776695913
 C         -0.2686409985       -4.0489741799       -2.3639415217
 C         -1.7434644185       -3.7829151802       -2.3566226617
 H         -2.2314751785       -3.5534104900       -3.2921534717
 H         -2.3617615485       -4.3412050606       -1.6687568220
 H          0.2564729916       -4.0064181695       -3.3060198416
 H          0.1161993816       -4.7897696001       -1.6794189619
 H         -0.6531654189       -1.8595785300       -2.3368734909
