  62
        -98.93445530
 C          2.0501007489        1.1483228611        0.6840918007
 C          2.7902151692        0.9931746016       -0.5151770492
 C          4.0915770193        0.3159755220       -0.3801617791
 C          4.5013422392       -0.1074697882        0.8279215609
 C          5.7758872493       -0.8539676380        1.0930672010
 C          5.5587188098       -2.3713463880        1.0095894405
 C          4.8143774002       -2.8209072279       -0.2479148298
 H          4.7468385705       -3.9105658379       -0.2134968601
 H          3.7921615201       -2.4361168282       -0.2153120899
 C          5.4751066204       -2.3909165073       -1.5651774095
 H          6.5159825103       -2.1191661571       -1.3856428892
 H          5.4757708808       -3.2418121371       -2.2497396498
 C          4.7674513102       -1.2408887373       -2.2843341294
 H          5.1801860304       -1.1670971169       -3.2940009993
 H          3.7030635503       -1.4697928676       -2.3821997997
 C          4.9057351697        0.1400090325       -1.6311119790
 H          5.9592787396        0.3523538728       -1.4387406387
 H          4.5285034996        0.8815529426       -2.3411513688
 H          4.9798521397       -2.6872047284        1.8807857703
 H          6.5325015599       -2.8625813977        1.0530923106
 H          6.5294121494       -0.5439519775        0.3717369212
 H          6.1206755590       -0.6003714981        2.0970116711
 O          3.7622393089        0.0554944312        1.9553746308
 C          2.5214749287        0.6643544809        1.9074790807
 O          1.9388206585        0.7177026404        3.0115108605
 H         -0.7158412809       -0.2425973799        1.5581799197
 C         -0.9145667208       -0.0640385997        0.5086042097
 C         -0.2796975409        1.0007647407       -0.1259234599
 C         -0.5356647707        1.1963261310       -1.4777135799
 C         -1.3970770203        0.3537826509       -2.1612539603
 C         -2.0205282401       -0.7026210795       -1.5248196207
 C         -1.7681223304       -0.9156425998       -0.1755961907
 N         -2.3957043302       -1.9850130801        0.4874449788
 S         -4.0407906501       -2.1816852205        0.2462521684
 O         -4.5239654902       -2.8419704410        1.4385249981
 O         -4.2685210196       -2.8787627802       -0.9949495218
 C         -4.6888456205       -0.5228580507        0.1380753587
 C         -4.5395223110        0.3029610991        1.2349038790
 C         -4.9923648514        1.6096245290        1.1570252392
 C         -5.5835832412        2.0663428591       -0.0112736108
 C         -5.7320140808        1.2232167794       -1.1012891711
 C         -5.2783770304       -0.0844265105       -1.0297991613
 H         -5.3702283900       -0.7718931003       -1.8547634815
 H         -6.1944459807        1.5804849595       -2.0072228611
 H         -5.9310859915        3.0856927590       -0.0701170906
 H         -4.8779524218        2.2666578088        2.0041914394
 H         -4.0807617911       -0.0846672310        2.1306034690
 H         -2.1581470604       -2.0560879403        1.4658212389
 H         -2.6822543498       -1.3723562495       -2.0496767011
 H         -1.5777353701        0.5215105011       -3.2120856703
 H         -0.0370141508        1.9806687412       -2.0170551796
 C          0.6740776987        1.8068927707        0.7214738605
 H          0.3446313285        1.6690303903        1.7627322704
 C          0.7520053283        3.3176494508        0.5412352710
 C          1.0672378183        4.0499351512       -0.7268817587
 C         -0.3094073218        4.1287289106       -0.1398232990
 H         -0.6147989322        5.0565420804        0.3205160211
 H         -1.1081975915        3.5975284106       -0.6329297694
 H          1.7063569681        4.9183695014       -0.6463933584
 H          1.2426533287        3.4793147615       -1.6228577789
 H          1.1836724179        3.7594871606        1.4368309112
 O          2.4072233393        1.3883439418       -1.6430549592
