  62
        -98.94042913
 C          2.4734073893        1.1777622792        0.0314566788
 C          2.4898058142       -0.0274781124       -0.7105142339
 C          3.8200248400       -0.5962936818       -0.9738096042
 C          4.9142367017        0.0530056815       -0.5355400403
 C          6.3234528598       -0.4404772922       -0.6876601924
 C          6.7500529097       -1.2809508700        0.5240964706
 C          5.7412922428       -2.3625986856        0.9105483885
 H          6.1602960928       -2.9107705412        1.7571075010
 H          4.8223936672       -1.8856858820        1.2593501310
 C          5.4017792537       -3.3462367493       -0.2179546849
 H          5.4133173157       -4.3605964689        0.1862503380
 H          6.1662369277       -3.2979715820       -0.9941795308
 C          4.0247667813       -3.1353545709       -0.8506697092
 H          3.7995038905       -4.0051322709       -1.4736215447
 H          3.2628628049       -3.0882926793       -0.0681385936
 C          3.8800593084       -1.8904705326       -1.7353353709
 H          4.6833829235       -1.8676610507       -2.4746150169
 H          2.9262224856       -1.9688431016       -2.2657129436
 H          6.8808048252       -0.6136724713        1.3790628007
 H          7.7139798402       -1.7422169468        0.3021175530
 H          6.3994240152       -1.0310953951       -1.5983820448
 H          6.9834861923        0.4246124966       -0.7694520541
 O          4.8576439990        1.2235155911        0.1501759103
 C          3.6410523712        1.8073573567        0.4616880663
 O          3.7293436752        2.8655187788        1.1168559457
 H         -1.5345246915        1.3422080872       -0.0467791622
 C         -1.1068773996        0.7497377144        0.7438238182
 C          0.2337586475        0.8739650167        1.0731858571
 C          0.7395804121        0.0968991311        2.1122339958
 C         -0.0688287586       -0.8026355541        2.7789227834
 C         -1.3999433907       -0.9435505419        2.4282895325
 C         -1.9220871562       -0.1556073191        1.4096106656
 N         -3.2865988873       -0.2390397700        1.0812777103
 S         -3.7997696542       -0.0169418653       -0.5106396948
 O         -3.1076679970       -0.9204305893       -1.4021242263
 O         -3.7296018502        1.3852508494       -0.8350633350
 C         -5.5075587287       -0.5036603323       -0.3419532879
 C         -5.9027263566       -1.7648182043       -0.7453886294
 C         -7.2285832976       -2.1358407031       -0.5838411872
 C         -8.1308193251       -1.2454797067       -0.0216627326
 C         -7.7193905218        0.0174168393        0.3783374653
 C         -6.3958818055        0.3950833333        0.2180773939
 H         -6.0322424274        1.3678623816        0.5049788374
 H         -8.4244903623        0.7076993638        0.8125743638
 H         -9.1618194195       -1.5367024762        0.1028369493
 H         -7.5518848908       -3.1156251245       -0.8966591453
 H         -5.1676204718       -2.4203411571       -1.1843709381
 H         -3.7300278023       -1.0533278907        1.4850283773
 H         -2.0291735997       -1.6541204075        2.9425451062
 H          0.3417706272       -1.4065062713        3.5744552416
 H          1.7824376407        0.2011351798        2.3814893491
 C          1.1501585243        1.8413840077        0.3640510202
 H          1.3856147107        2.6621444325        1.0584416813
 C          0.5389808932        2.4304168589       -0.8909122756
 C         -0.3195618475        3.6556396156       -0.8117366464
 C          1.0528894882        3.7393775800       -1.4072667903
 H          1.1477724904        3.8712574632       -2.4746590298
 H          1.8309382222        4.2236750636       -0.8348923522
 H         -0.4753865140        4.0926142446        0.1631710690
 H         -1.1760382622        3.7253210437       -1.4659201747
 H          0.2774955547        1.6719803376       -1.6217570858
 O          1.4498220280       -0.6018338941       -1.1290032357
