  62
        -98.93982067
 C         -2.6788459878       -0.7757506645        0.3043071373
 C         -2.7318866564        0.3220739868        1.1963666120
 C         -3.3357051613        1.5495455396        0.6678831171
 C         -3.7971043049        1.5746350272       -0.5959906941
 C         -4.4580375386        2.7446703463       -1.2729608227
 C         -3.4719107693        3.7534790615       -1.8778477984
 C         -2.7213734364        4.6178008289       -0.8638489174
 H         -2.2336631268        5.4176665112       -1.4243994519
 H         -3.4370104719        5.0846024430       -0.1863464084
 C         -1.6575615350        3.8641210281       -0.0531800158
 H         -1.4208426653        2.9208995109       -0.5517303523
 H         -0.7369736709        4.4514183589       -0.0261912114
 C         -2.0534588434        3.5748462126        1.3949891270
 H         -2.1669072393        4.5152571027        1.9386308552
 H         -1.2451651163        3.0095147243        1.8661055368
 C         -3.3476862358        2.7644259260        1.5462093598
 H         -3.4213475546        2.4253365818        2.5824211995
 H         -4.2115595300        3.3888934401        1.3203461394
 H         -2.7539949888        3.2107963904       -2.4973177980
 H         -4.0436113980        4.4142117824       -2.5335682820
 H         -5.0669175406        2.3323809659       -2.0803535653
 H         -5.1150810559        3.2537036923       -0.5672712848
 O         -3.7256822589        0.4985238037       -1.4231832254
 C         -3.1425985850       -0.6910466050       -1.0088624971
 O         -3.1086273472       -1.5743887173       -1.8854624299
 O         -2.2910459558        0.2791509785        2.3772694486
 C         -2.0418474179       -2.0698073894        0.7799439738
 C         -0.7628788669       -2.3055988507        0.0132388919
 C         -0.5108950422       -3.4445403990       -0.7381419287
 C          0.6840361195       -3.5772097412       -1.4256809256
 C          1.6475827838       -2.5876459803       -1.3774402442
 C          1.4109381698       -1.4478580067       -0.6181956533
 C          0.2161223004       -1.3199815429        0.0732942582
 H          0.0291891270       -0.4344086638        0.6684578495
 N          2.3770441435       -0.4242424059       -0.5699581210
 S          3.9869406939       -0.9008244033       -0.3693330091
 O          4.5105649630       -1.2869236441       -1.6557036923
 O          4.0843202607       -1.8960199150        0.6749545767
 C          4.7377208799        0.6278136437        0.1527240699
 C          4.9798813931        0.8395522887        1.4965678137
 C          5.5462643129        2.0405721524        1.8941678128
 C          5.8549662358        3.0050023614        0.9467481430
 C          5.6051047600        2.7778403964       -0.3987000544
 C          5.0411134897        1.5785383847       -0.8034412063
 H          4.8387197379        1.3542539544       -1.8377049784
 H          5.8487493649        3.5295817014       -1.1320033181
 H          6.2959018584        3.9384794863        1.2589711199
 H          5.7441417131        2.2185919471        2.9389305505
 H          4.7304907906        0.0585367074        2.1970125650
 H          2.1301094802        0.2940052007        0.0975922255
 H          2.5811078313       -2.6836882776       -1.9081409080
 H          0.8668853663       -4.4659393325       -2.0109732950
 H         -1.2502812056       -4.2261133626       -0.7934237974
 H         -1.7744302024       -1.8907767918        1.8320183764
 C         -3.0215775118       -3.2207158365        0.7183133524
 C         -2.8231525570       -4.4164018480        1.5997501320
 C         -3.9380976514       -3.4554898374        1.8801547056
 H         -4.9522106802       -3.7677886802        1.6811955577
 H         -3.8439109292       -2.7950475920        2.7298688676
 H         -3.0727363673       -5.3917873616        1.2105516207
 H         -1.9702072907       -4.4117880086        2.2615816856
 H         -3.4256583313       -3.3767461755       -0.2750973370
