  62
        -98.94343330
 C         -2.4985574800       -1.1349143062        0.0089991578
 C         -3.4579458732       -0.5974212599        0.9094110019
 C         -4.4208860055        0.3539706916        0.3474495849
 C         -4.3734406516        0.6506924096       -0.9635341729
 C         -5.3014408106        1.5798543861       -1.6976640541
 C         -4.9114749321        3.0609648519       -1.5969531411
 C         -5.1592885616        3.7078555814       -0.2336119612
 H         -5.0520085279        4.7861688052       -0.3669321033
 H         -6.1879520870        3.5191297212        0.0749689661
 C         -4.1956828219        3.2490172230        0.8698871777
 H         -3.3229605053        2.7722223207        0.4173611453
 H         -3.8333992434        4.1191781687        1.4218262697
 C         -4.8094057753        2.2897291693        1.8897932621
 H         -4.0300328197        2.0000678581        2.5991394687
 H         -5.5982525189        2.8012269015        2.4456982258
 C         -5.3942513485        1.0090811914        1.2800799041
 H         -5.6017625716        0.3065234342        2.0908317511
 H         -6.3268237893        1.2306370332        0.7614979054
 H         -3.8567632546        3.1633435071       -1.8627240921
 H         -5.4963480479        3.6025961158       -2.3439804989
 H         -5.2683142132        1.2855334483       -2.7489214462
 H         -6.3194421387        1.4447792863       -1.3310778051
 O         -3.4551136251        0.1010055505       -1.7990645942
 C         -2.4879431195       -0.7826608650       -1.3404108929
 O         -1.7093641247       -1.1641819145       -2.2391237893
 O         -3.5109906817       -0.9101877066        2.1281390138
 C         -1.4992871973       -2.1182300586        0.5953621387
 C         -0.1614405788       -1.4688390680        0.8611267124
 C          0.3316358188       -1.3614624514        2.1563207665
 C          1.5666442181       -0.7841480762        2.3945328162
 C          2.3315817331       -0.2981148765        1.3495137048
 C          1.8464845665       -0.3970190749        0.0518327427
 C          0.6119585627       -0.9851102711       -0.1846407364
 H          0.2371726833       -1.0545123137       -1.1952858269
 N          2.6002392630        0.1198501204       -1.0163708846
 S          4.2120690442       -0.3291244379       -1.1445129115
 O          4.5464914464       -0.1573979421       -2.5413802831
 O          4.4438831888       -1.6410588997       -0.5854487495
 C          5.0741642288        0.9011762674       -0.1881047087
 C          4.8537384029        2.2313698964       -0.4875836609
 C          5.5253237372        3.2008812841        0.2398537609
 C          6.4033489309        2.8261813647        1.2461983647
 C          6.6162609250        1.4864482071        1.5323903723
 C          5.9467211398        0.5115253167        0.8091036457
 H          6.0754327065       -0.5419122184        1.0001088101
 H          7.2990529955        1.1973045925        2.3150747728
 H          6.9244036638        3.5832591591        1.8106718127
 H          5.3618590612        4.2437462227        0.0205269856
 H          4.1650651896        2.4800950109       -1.2779098892
 H          2.1336478121        0.0392936467       -1.9086509309
 H          3.2933847815        0.1540159098        1.5286931540
 H          1.9370629863       -0.7087624162        3.4054362077
 H         -0.2657212850       -1.7260831362        2.9792663189
 H         -1.9255170132       -2.4083990247        1.5652253499
 C         -1.3280712502       -3.3703841853       -0.2431690213
 C         -0.8012767336       -4.6130372169        0.4069158410
 C         -2.2377385416       -4.5381670318       -0.0142464604
 H         -2.5584747171       -5.1155178000       -0.8683662482
 H         -2.9901785604       -4.4419017009        0.7548770189
 H         -0.1300952421       -5.2432673807       -0.1562526138
 H         -0.5798130903       -4.5691939743        1.4625085891
 H         -1.0265193903       -3.1698683437       -1.2632162056
