  62
        -98.94964621
 C          1.4984339474        1.0890848684        0.0208824413
 C          2.5003720742        0.6406263500        0.9114144043
 C          2.9983269807       -0.7216085654        0.6843861632
 C          2.4625452459       -1.4617613900       -0.3038309917
 C          2.8970878226       -2.8522372152       -0.6646865469
 C          3.9995161931       -2.8345711653       -1.7328216262
 C          5.1526144267       -1.8837619325       -1.4116926042
 H          5.8849654565       -1.9767878982       -2.2163707274
 H          4.7817370488       -0.8565198292       -1.4296431522
 C          5.8370752592       -2.1502099137       -0.0638894414
 H          5.5929251051       -3.1547060816        0.2835729243
 H          6.9190236810       -2.1097133785       -0.2059022004
 C          5.4938798165       -1.1393037034        1.0318102670
 H          5.6473799910       -0.1248561817        0.6554307297
 H          6.1884827801       -1.2891394420        1.8626415694
 C          4.0732711955       -1.2296943382        1.6039794846
 H          4.0309986452       -0.5929155206        2.4929090977
 H          3.8622866729       -2.2566225348        1.9109295882
 H          3.5555429775       -2.5275496804       -2.6824804844
 H          4.3831223735       -3.8498284841       -1.8489227438
 H          3.2501703142       -3.3589918115        0.2315333854
 H          2.0295147590       -3.3895110289       -1.0521745630
 O          1.4874855353       -1.0046858605       -1.1276575373
 C          0.9741678927        0.2719749113       -0.9796771453
 O          0.0735315017        0.5625583173       -1.7915020163
 O          2.9513336623        1.3455883511        1.8564772110
 C          0.9098251427        2.4760225960        0.2011013585
 C         -0.5859726895        2.3856039207        0.3795801989
 C         -1.4775689162        3.2898157887       -0.1846645915
 C         -2.8417178034        3.1391374400       -0.0027932488
 C         -3.3463614222        2.0750780926        0.7220314851
 C         -2.4617296482        1.1717686170        1.2989691818
 C         -1.0967086815        1.3494243399        1.1510466774
 H         -0.4256679703        0.6373555425        1.6093766573
 N         -2.9174244806        0.0500782390        2.0258714012
 S         -2.5864879801       -1.4506464325        1.3514723062
 O         -3.2143911790       -2.4071061622        2.2387589678
 O         -1.1683346216       -1.6008743989        1.1527988305
 C         -3.4627857688       -1.4283113097       -0.2026458712
 C         -2.9056981081       -0.7862357355       -1.2902604467
 C         -3.6410787182       -0.7104651687       -2.4641068795
 C         -4.9076535549       -1.2694250277       -2.5302698733
 C         -5.4516284694       -1.9111164208       -1.4274080290
 C         -4.7263446768       -1.9870025990       -0.2499659809
 H         -5.1049195487       -2.4779234808        0.6321815810
 H         -6.4357051622       -2.3482125851       -1.4807336327
 H         -5.4721033088       -1.2053638236       -3.4471586698
 H         -3.2097683917       -0.2102219882       -3.3163734815
 H         -1.9150357160       -0.3626233111       -1.2240761531
 H         -3.9011376026        0.0919914005        2.2577479642
 H         -4.4110021165        1.9400948097        0.8401730101
 H         -3.5212250580        3.8491502638       -0.4487110835
 H         -1.1035273917        4.1109214316       -0.7741341389
 H          1.3489578384        2.8639246792        1.1329113549
 C          1.3223718821        3.3776073813       -0.9450358458
 C          1.5228033166        4.8465913707       -0.7240151604
 C          2.7053845031        3.9543180412       -0.9476631026
 H          3.2355460884        4.0206524177       -1.8858806635
 H          3.3388012416        3.7197717147       -0.1044663542
 H          1.2434564306        5.5293683957       -1.5122479445
 H          1.3609466721        5.2296280077        0.2721777631
 H          0.9142765665        3.0511449761       -1.8952542666
