  62
        -98.94490835
 C         -2.5541576856       -0.0605919379        0.0150623470
 C         -2.3870903792        0.9481110378        0.9920129531
 C         -2.0989770133        2.2956577528        0.4861223691
 C         -2.0169436874        2.4954716280       -0.8419287129
 C         -1.7408511921        3.8188739600       -1.4950013998
 C         -0.2449571784        4.0298416388       -1.7601708733
 C          0.6498542327        3.7562261086       -0.5510992944
 H          0.6415528165        2.6858541970       -0.3316740426
 H          1.6722428037        4.0059486506       -0.8448974242
 C          0.2797980323        4.5442098184        0.7128428715
 H         -0.3299295226        5.4090640592        0.4471766407
 H          1.1989424426        4.9205622219        1.1670731563
 C         -0.4405402780        3.7262182402        1.7869723016
 H          0.1012751586        2.7904802898        1.9557858451
 H         -0.4141185005        4.2931271398        2.7219333962
 C         -1.9094428190        3.3897741687        1.4981039761
 H         -2.3564063117        3.0193344176        2.4255862148
 H         -2.4424878956        4.2943815992        1.1970878571
 H         -0.0999288409        5.0583726895       -2.0975575762
 H          0.0626977935        3.3583154973       -2.5647720393
 H         -2.2740519833        3.8435767613       -2.4473170377
 H         -2.1217667229        4.6139898612       -0.8564779305
 O         -2.1719656245        1.4997053269       -1.7512211906
 C         -2.4071407160        0.1940694596       -1.3481728264
 O         -2.4824193169       -0.6262765558       -2.2833730682
 H         -0.2309844546       -0.8472936809        0.4764426005
 C         -0.3752836014       -1.8648750329        0.1442592136
 C         -1.6629988480       -2.3798225449        0.0684288432
 C         -1.8251176268       -3.6983871157       -0.3363042390
 C         -0.7218418512       -4.4681308953       -0.6655053071
 C          0.5555842973       -3.9437916214       -0.6088997000
 C          0.7279947940       -2.6212401323       -0.2102462461
 N          2.0065447739       -2.0412766732       -0.2036591625
 S          2.2773467462       -0.5116940903        0.4307016086
 O          1.9976561378       -0.4844586270        1.8511046254
 O          1.5879084627        0.4574664039       -0.3817128484
 C          4.0347993625       -0.3911502099        0.1605279385
 C          4.4874553457        0.0083402424       -1.0824462949
 C          5.8529668908        0.0685000839       -1.3112024460
 C          6.7384267011       -0.2711510221       -0.2989803449
 C          6.2696951653       -0.6673963302        0.9445411191
 C          4.9050068136       -0.7297716878        1.1793609755
 H          4.4945303443       -1.0213287766        2.1327551964
 H          6.9603323300       -0.9271051959        1.7305463480
 H          7.8006036644       -0.2236042633       -0.4797347903
 H          6.2203691122        0.3797065417       -2.2757571505
 H          3.7602014845        0.2694763491       -1.8338963673
 H          2.7609541298       -2.6889633544       -0.0309357913
 H          1.4120091840       -4.5422661285       -0.8776546676
 H         -0.8610258773       -5.4926483634       -0.9757605526
 H         -2.8140810890       -4.1227171699       -0.3953406472
 C         -2.8132441331       -1.4856513524        0.4660066162
 H         -2.8408475262       -1.4419417063        1.5663909384
 C         -4.1557344606       -1.9754499798       -0.0364102356
 C         -4.9640852607       -2.9423127092        0.7749406659
 C         -5.3997479158       -1.5135374370        0.6598505933
 H         -6.2690789009       -1.2820549295        0.0631597280
 H         -5.2744701795       -0.8683839748        1.5174812354
 H         -4.5532949665       -3.2698943834        1.7181110477
 H         -5.5398701271       -3.6942633161        0.2567455835
 H         -4.1872748867       -2.0575994552       -1.1169358559
 O         -2.4885007804        0.7321847883        2.2323294915
