  62
        -98.94017020
 C         -1.7031168418       -0.9802239787        0.5033078769
 C         -1.7713255919        0.2312254353        1.2321621839
 C         -2.2846083713        1.4145786566        0.5209253601
 C         -2.5924244037        1.3139231584       -0.7851884328
 C         -3.1615237281        2.3289499538       -1.7544657968
 C         -3.1389095575        3.8201786505       -1.4294583937
 C         -1.7430228831        4.4373101129       -1.3710624645
 H         -1.8462918720        5.4856603893       -1.0811730307
 H         -1.3040742659        4.4086210040       -2.3717136203
 C         -0.7656955771        3.7537195969       -0.4177125227
 H          0.1720866125        4.3171017427       -0.4394350317
 H         -0.5349640715        2.7500983559       -0.7854827503
 C         -1.2325453088        3.6766113806        1.0355960634
 H         -1.5415677841        4.6689292304        1.3700358606
 H         -0.3737081829        3.3755960547        1.6397569556
 C         -2.3756962514        2.6839239534        1.3198242336
 H         -3.3480963825        3.1491651178        1.1707457064
 H         -2.3121792711        2.3874535748        2.3709799011
 H         -3.6772875193        4.0157530919       -0.5067164033
 H         -3.6884317563        4.3205812339       -2.2315320929
 H         -2.6294330637        2.1609511247       -2.6965870469
 H         -4.2008470985        2.0269074059       -1.9276099302
 O         -2.4657496502        0.1374784172       -1.4613244285
 C         -1.9985588795       -1.0202929875       -0.8600424965
 O         -1.9137628992       -1.9882267345       -1.6390695784
 H          0.9544176829       -0.8396426990        0.3947702622
 C          0.9962622933       -1.8425521790        0.0005977587
 C         -0.0048287080       -2.7410630074        0.3480487158
 C          0.0608034737       -4.0337377289       -0.1505268285
 C          1.0862620679       -4.3931861627       -1.0094854821
 C          2.0394491350       -3.4743852253       -1.4078414217
 C          1.9865486250       -2.1786960702       -0.9035718814
 N          2.9245405370       -1.2083239326       -1.2819204247
 S          2.5285539962        0.4191746440       -1.2950409605
 O          1.1370730921        0.6565758081       -1.5995786906
 O          3.4881341284        1.0040096098       -2.2092124560
 C          2.9255501544        0.9422727156        0.3598907769
 C          1.9393192566        1.4148003507        1.2008019078
 C          2.2781544213        1.7875288880        2.4920410297
 C          3.5938894059        1.6869071832        2.9159769424
 C          4.5766152408        1.2187425762        2.0561425380
 C          4.2418977970        0.8401755934        0.7664783650
 H          4.9737892069        0.4748535595        0.0656825391
 H          5.5991922239        1.1441495986        2.3892068433
 H          3.8522863492        1.9755180150        3.9225614792
 H          1.5067220799        2.1398291292        3.1587408601
 H          0.9227149745        1.4745064417        0.8427836019
 H          3.5253670441       -1.4648816480       -2.0507751228
 H          2.8100663353       -3.7488938593       -2.1120693622
 H          1.1258087854       -5.3990981341       -1.3996990407
 H         -0.7052823173       -4.7485519645        0.1014468094
 C         -1.1230820986       -2.2000188665        1.2027334342
 H         -0.6809306677       -1.7953489238        2.1289628527
 C         -2.1387059278       -3.2464805777        1.6298576523
 C         -3.5618061465       -2.8679131063        1.9091834494
 C         -3.2333217761       -3.7272527590        0.7270416215
 H         -3.5040479483       -4.7724661399        0.7653944958
 H         -3.2927971800       -3.2963119841       -0.2596257809
 H         -3.8489389029       -1.8419239341        1.7286732885
 H         -4.0583574790       -3.3197264248        2.7547599428
 H         -1.7005869558       -3.9847130513        2.2947334812
 O         -1.4176997722        0.3261009182        2.4389054824
