  62
        -98.93969414
 C         -2.1131393172       -0.3991888440        0.2580694629
 C         -2.8075618575        0.8256780685        0.0825364780
 C         -4.1643433932        0.7376687344       -0.4710799098
 C         -4.6616800534       -0.4697152613       -0.7945881701
 C         -6.0454973586       -0.7161305215       -1.3204340521
 C         -7.0350767446       -0.9859927770       -0.1783823429
 C         -6.9656322193        0.0383281095        0.9542015840
 H         -7.7273124408       -0.2351475365        1.6876075240
 H         -5.9964515761       -0.0447213371        1.4514523624
 C         -7.1824076524        1.4916975690        0.5101376016
 H         -7.6567673305        1.5127176366       -0.4716563542
 H         -7.8668932638        1.9738946723        1.2112474865
 C         -5.9101135939        2.3406277797        0.4754275692
 H         -6.2029605418        3.3882532356        0.3655158522
 H         -5.3809328053        2.2481262680        1.4273825625
 C         -4.9248698715        2.0204819705       -0.6558756922
 H         -5.4507367843        2.0221819126       -1.6129401420
 H         -4.1721126374        2.8141406592       -0.6758096620
 H         -6.8213198069       -1.9725460976        0.2391760096
 H         -8.0444574823       -1.0040258576       -0.5933084143
 H         -6.3673607873        0.1485798031       -1.8975562573
 H         -6.0141670686       -1.5883007492       -1.9755179013
 O         -3.9629611497       -1.6196847665       -0.6339283842
 C         -2.6758374618       -1.6235321070       -0.1063145486
 O         -2.1753563429       -2.7594918131       -0.0271333613
 H          1.3192141736        1.4758192972        0.7251141436
 C          1.3072382474        0.8059552544       -0.1210789802
 C          0.3265453059       -0.1691063750       -0.2285356535
 C          0.3371495808       -1.0098653177       -1.3380380814
 C          1.3029429361       -0.8682054186       -2.3171250616
 C          2.2885800005        0.0968895508       -2.1990430023
 C          2.2916142904        0.9356961706       -1.0919984636
 N          3.2898785491        1.9178841341       -0.9248504297
 S          4.3138985023        1.7429902688        0.3899203243
 O          3.5466524669        1.7655772143        1.6072330847
 O          5.3181112187        2.7699574577        0.2333327456
 C          5.0499438003        0.1348163767        0.1525888196
 C          4.3460949354       -0.9852167344        0.5480685662
 C          4.8822246001       -2.2375349213        0.2933949432
 C          6.1055590232       -2.3475096789       -0.3499026935
 C          6.8012065620       -1.2128214849       -0.7396294052
 C          6.2678547286        0.0419290579       -0.4924014617
 H          6.7751160108        0.9506224095       -0.7740476442
 H          7.7537657286       -1.3022444411       -1.2366063353
 H          6.5188763512       -3.3241226351       -0.5465736547
 H          4.3395004308       -3.1183977511        0.5972316426
 H          3.4007331289       -0.8635396417        1.0503915945
 H          3.8410980066        2.0795728703       -1.7566552646
 H          3.0461885823        0.2036305367       -2.9608233095
 H          1.2949005815       -1.5229258025       -3.1751638676
 H         -0.4162570990       -1.7786858399       -1.4184626057
 C         -0.7188172039       -0.3064707388        0.8499368724
 H         -0.7184873186        0.6362537073        1.4205480976
 C         -0.3981840499       -1.4305411607        1.8274549916
 C          0.6907020184       -2.4307259878        1.5935375017
 C          0.8640688232       -1.3694125259        2.6361303946
 H          0.8249777180       -1.6538454245        3.6769307628
 H          1.5445303461       -0.5537013804        2.4345927945
 H          0.5116812044       -3.4458583576        1.9129999445
 H          1.2620800804       -2.3565936366        0.6814050345
 H         -1.2840662592       -1.7946870088        2.3364780693
 O         -2.3115048764        1.9452593047        0.3838856860
