  62
        -98.95003675
 C          1.9057784183        1.0358292965        0.0229217177
 C          1.3335416893        1.8163517221       -1.0117791864
 C          0.2645595992        2.7363301010       -0.6051353501
 C         -0.0792390275        2.8299789897        0.6923498878
 C         -1.1039760098        3.7657037910        1.2749446890
 C         -2.5494483450        3.2553797109        1.2031496182
 C         -3.1711681414        3.2654811409       -0.1933589333
 H         -4.2426120300        3.0961606339       -0.0713000479
 H         -3.0454165236        4.2508753801       -0.6432680710
 C         -2.6087817732        2.1921024159       -1.1345260733
 H         -2.0911314050        1.4258970300       -0.5533598400
 H         -3.4265416675        1.6832728788       -1.6509924801
 C         -1.6564482289        2.7109940790       -2.2119601116
 H         -1.2824523695        1.8435012799       -2.7634388228
 H         -2.2033422378        3.3469051926       -2.9124925819
 C         -0.4535725114        3.4990529380       -1.6760429245
 H         -0.7779709936        4.4708098210       -1.3027798150
 H          0.2470656404        3.6556158719       -2.5002822336
 H         -2.5871268728        2.2404998161        1.6051272475
 H         -3.1520293872        3.8961871409        1.8507042570
 H         -1.0354174188        4.7331404478        0.7763250343
 H         -0.8381677167        3.8974639155        2.3260071063
 O          0.5159321877        2.0846881560        1.6604013714
 C          1.4846467388        1.1382052336        1.3485315071
 O          1.8819869369        0.4785951127        2.3267767088
 O          1.7074363124        1.7537776438       -2.2139174569
 C          2.9569700473       -0.0022704084       -0.3351776450
 C          2.3754870441       -1.3718793488       -0.0789479608
 C          2.9166918958       -2.2942219483        0.8061072164
 C          2.2795590445       -3.5033855396        1.0272681908
 C          1.0914478761       -3.8086186668        0.3893197030
 C          0.5459061322       -2.8966332927       -0.5087736600
 C          1.2034477547       -1.7010561152       -0.7508892493
 H          0.7843429716       -1.0018242654       -1.4604130482
 N         -0.6537609618       -3.1848671590       -1.1822218337
 S         -1.8629888101       -2.0453805324       -1.3584722706
 O         -2.9679630744       -2.7855543092       -1.9275174578
 O         -1.3833127156       -0.9259351350       -2.1244354770
 C         -2.2921671167       -1.5396721445        0.2976573950
 C         -3.4471334792       -2.0363214460        0.8700045827
 C         -3.7661967224       -1.6698547490        2.1675460032
 C         -2.9218906992       -0.8275135249        2.8753581042
 C         -1.7622619228       -0.3421537921        2.2905838622
 C         -1.4458359076       -0.6954668655        0.9881482968
 H         -0.5509003668       -0.3245342187        0.5123618766
 H         -1.0902448443        0.3049489271        2.8338421167
 H         -3.1655524543       -0.5445753003        3.8872694756
 H         -4.6684332027       -2.0435197466        2.6241858486
 H         -4.0725973050       -2.6887934326        0.2825926566
 H         -1.0532345818       -4.0831593804       -0.9512771266
 H          0.5886035476       -4.7447502805        0.5787970597
 H          2.7076217830       -4.2122781882        1.7195496964
 H          3.8288990272       -2.0633281065        1.3303957425
 H          3.1138247814        0.1050773094       -1.4186219150
 C          4.2646931090        0.2601285368        0.3783532433
 C          5.5433516747       -0.2799353286       -0.1867068980
 C          5.2593950102        1.1900907238       -0.2463684894
 H          5.8199698909        1.8520552720        0.3964341794
 H          5.0023247947        1.6248631852       -1.2014698992
 H          6.3038234282       -0.6270706361        0.4961051226
 H          5.4835331364       -0.8448302324       -1.1047681378
 H          4.1559337891        0.2988242978        1.4558605019
