  62
        -98.94120815
 C          0.8357450176        1.6418924124       -0.7845308246
 C          2.1224060880        1.7297265529       -0.1977075480
 C          3.0481850054        0.6086233042       -0.4304029017
 C          2.6260936652       -0.4354730459       -1.1638286575
 C          3.3426330976       -1.7313556796       -1.4269067040
 C          2.9737829613       -2.7696184509       -0.3515234411
 C          3.8895278042       -2.7754831616        0.8702763506
 H          3.4748653445       -3.4943666176        1.5809801093
 H          4.8817392363       -3.1290157574        0.5804579343
 C          4.0262370092       -1.4211164709        1.5697603972
 H          3.0430256402       -0.9481503091        1.6293363673
 H          4.3576833174       -1.6030455053        2.5942829817
 C          5.0273633487       -0.4819823740        0.8807405721
 H          5.7360096761       -0.1042746478        1.6210270384
 H          5.6105737717       -1.0505659657        0.1565382832
 C          4.4083503695        0.7450942416        0.1988191834
 H          5.1046818130        1.1174497800       -0.5607824106
 H          4.2920383593        1.5469471327        0.9349306761
 H          1.9491368958       -2.5733697538       -0.0208455079
 H          2.9941428541       -3.7663163396       -0.7982316762
 H          2.9932943755       -2.0899354119       -2.3973694227
 H          4.4171231663       -1.5812158123       -1.4756076149
 O          1.3967021647       -0.4680513086       -1.7405680471
 C          0.4659627318        0.5403877176       -1.5563410862
 O         -0.6159375344        0.3233897771       -2.1372199638
 O          2.4822118813        2.7129389477        0.5077368686
 C         -0.1465987929        2.7444543966       -0.4253903766
 C         -0.9101717364        2.3342454307        0.8135354262
 C         -1.0459453390        3.1856526733        1.9033302551
 C         -1.6880818431        2.7577396342        3.0524769952
 C         -2.1687105837        1.4640477449        3.1527482246
 C         -2.0379724294        0.6070619887        2.0663179956
 C         -1.4532684681        1.0609618919        0.8953573787
 H         -1.3809331404        0.3912635529        0.0546262173
 N         -2.4722441296       -0.7260455105        2.1162612644
 S         -1.5376252385       -1.8980645427        1.3584378562
 O         -1.8581820922       -3.1218351061        2.0685209873
 O         -0.1371817665       -1.5418944463        1.3411530033
 C         -2.1902173638       -2.0328779377       -0.2903592154
 C         -1.3689185252       -2.5324687340       -1.2796251121
 C         -1.8800265702       -2.7000175930       -2.5558356200
 C         -3.1987463632       -2.3675449824       -2.8184531628
 C         -4.0119915661       -1.8687446150       -1.8129149726
 C         -3.5076306501       -1.7015385944       -0.5336096255
 H         -4.1096682634       -1.3074580078        0.2684451003
 H         -5.0361050814       -1.6042366260       -2.0228143654
 H         -3.5919826739       -2.4916550556       -3.8152768299
 H         -1.2424528366       -3.0768649557       -3.3394587523
 H         -0.3417398523       -2.7609849201       -1.0419115989
 H         -2.8052156643       -1.0396497466        3.0165520854
 H         -2.6303595949        1.1162968224        4.0642806503
 H         -1.7890213561        3.4289337074        3.8918472783
 H         -0.6245682953        4.1787610194        1.8563403845
 H          0.4680630954        3.6170590325       -0.1645449057
 C         -1.0968190269        3.1387748528       -1.5374268572
 C         -1.7098748709        4.5059893957       -1.5205779763
 C         -0.6679574729        4.1639898291       -2.5420663395
 H         -0.9703024779        4.0326257150       -3.5698350635
 H          0.3175590336        4.5919807954       -2.4288124996
 H         -2.7329732656        4.6134354139       -1.8458578826
 H         -1.4309914149        5.1720518896       -0.7183425535
 H         -1.7032781387        2.3165012320       -1.8931715034
