  62
        -98.93695742
 C          2.6298202710        1.2256683005        0.1385085031
 C          2.6581754157        0.2392992856       -0.8736587103
 C          3.8640108862       -0.6079097489       -0.9228848723
 C          4.8524573681       -0.3919778146       -0.0376767539
 C          6.1291059353       -1.1714900263        0.1159755015
 C          5.9656582724       -2.2761454601        1.1737189888
 C          5.4124057171       -3.5986997749        0.6441781349
 H          6.1758141633       -4.0885115969        0.0359715774
 H          5.2214070873       -4.2394565240        1.5081031552
 C          4.1268331797       -3.4892493499       -0.1801452018
 H          3.6440981964       -4.4684453202       -0.1777479472
 H          3.4387845302       -2.7899810496        0.2987362125
 C          4.3770587491       -3.0634547597       -1.6344988990
 H          5.4423585269       -3.1440710078       -1.8503259580
 H          3.8715934927       -3.7600579934       -2.3064366646
 C          3.8806988999       -1.6566654198       -2.0012048662
 H          2.8425815029       -1.7145576890       -2.3434621330
 H          4.4674520678       -1.2800653808       -2.8457366050
 H          6.9391861823       -2.4742790477        1.6267384388
 H          5.3117350125       -1.8915028997        1.9606892668
 H          6.4470934255       -1.5830317837       -0.8372492647
 H          6.8853469326       -0.4653168744        0.4651134695
 O          4.7875453475        0.5798175903        0.9146587325
 C          3.6824129752        1.4006720167        1.0356544189
 O          3.7525954204        2.2316909408        1.9640277299
 O          1.7210984732        0.0665372364       -1.6964964085
 C          1.4223267051        2.1353503667        0.2760713448
 C          0.1806800264        1.3065791064        0.5003464192
 C          0.1767308723        0.3793535284        1.5396928974
 C         -0.9351687564       -0.4013507816        1.7870881276
 C         -2.0701742072       -0.2768681559        1.0041698426
 C         -2.0827833822        0.6523886048       -0.0255905708
 C         -0.9638307223        1.4413623933       -0.2679049976
 H         -0.9905811109        2.1573617975       -1.0744364145
 N         -3.2250602534        0.7794195333       -0.8303114408
 S         -4.7375177818        0.8476531851       -0.1132314149
 O         -5.5765142629        1.5321328346       -1.0725583653
 O         -4.6713792648        1.4258625529        1.2088069886
 C         -5.2455004286       -0.8558934357       -0.0121444909
 C         -5.6487359713       -1.3836195452        1.1987140023
 C         -6.0514145405       -2.7090670139        1.2516662440
 C         -6.0451341484       -3.4786377935        0.0985165963
 C         -5.6400493059       -2.9327207692       -1.1104890127
 C         -5.2371358764       -1.6083065491       -1.1702039846
 H         -4.9179307757       -1.1474960987       -2.0900918998
 H         -5.6359736480       -3.5345498244       -2.0050203830
 H         -6.3579833128       -4.5099624894        0.1419927160
 H         -6.3673077446       -3.1351088042        2.1904025720
 H         -5.6329920958       -0.7491645585        2.0707337061
 H         -3.1354628691        1.4560129242       -1.5738492327
 H         -2.9392152287       -0.8867614761        1.1886605729
 H         -0.9192675740       -1.1178986929        2.5944609403
 H          1.0645492705        0.2794646852        2.1501603191
 H          1.5958879689        2.7356885333        1.1812051487
 C          1.3349032273        3.0671104249       -0.9144225423
 C          0.6608220760        4.3988874564       -0.7812930000
 C          2.1519410278        4.3225656245       -0.9106789577
 H          2.6073700747        4.6445149165       -1.8351391535
 H          2.7546783440        4.5189930541       -0.0358249033
 H          0.0941795100        4.7787687825       -1.6184192414
 H          0.2475345183        4.6562179854        0.1824803267
 H          1.2421562084        2.5354952215       -1.8546621238
