  62
        -98.94947539
 C         -1.0762802406       -1.7268803361        0.1174402975
 C         -1.7033204856       -0.9408012175        1.1128123190
 C         -2.8420685646       -0.1294914804        0.6688616418
 C         -3.2153586187       -0.1566494772       -0.6234869642
 C         -4.3546229845        0.6155770206       -1.2313197174
 C         -3.9980203095        2.0650696804       -1.5895177872
 C         -3.8894260209        3.0216963066       -0.4012617395
 H         -3.8808948645        4.0349791041       -0.8079660213
 H         -4.7778158049        2.9276415779        0.2249023281
 C         -2.6285810808        2.8278437127        0.4523315127
 H         -1.8829096603        2.2764108584       -0.1266713115
 H         -2.1878478218        3.8034279118        0.6740471723
 C         -2.8691896582        2.1270223385        1.7897735525
 H         -3.5012555155        2.7575065227        2.4197437315
 H         -1.9063476956        2.0106447090        2.2930625729
 C         -3.5237439045        0.7440035173        1.6796497524
 H         -3.4399991708        0.2496172127        2.6510150799
 H         -4.5799189736        0.8497307501        1.4319383312
 H         -3.0538773707        2.0683353958       -2.1407736151
 H         -4.7772694075        2.4371042828       -2.2592190100
 H         -4.6295736607        0.0911455233       -2.1490996350
 H         -5.2106122078        0.6057474325       -0.5553390760
 O         -2.5934700819       -0.9324214853       -1.5501798883
 C         -1.5037189032       -1.7224088751       -1.2111527640
 O         -1.0217456794       -2.3660773692       -2.1629757675
 H          0.6013536760       -0.1737921321       -0.6677911728
 C          1.4555976632       -0.8262580300       -0.7382654025
 C          1.3775674780       -2.1146867145       -0.2334350180
 C          2.4829950028       -2.9464391085       -0.3812516289
 C          3.6202484881       -2.4923005811       -1.0253355641
 C          3.6920666804       -1.2028808416       -1.5225395499
 C          2.5932497997       -0.3639006303       -1.3806347464
 N          2.6064220957        0.9442055009       -1.8811647284
 S          1.6977208223        2.1517432588       -1.1737784986
 O          0.2940590505        1.9575043329       -1.4381492860
 O          2.2749908757        3.3723773606       -1.6954267705
 C          2.0449063776        2.0241135181        0.5706604234
 C          1.0912017195        1.5437481475        1.4427643160
 C          1.4146249809        1.3963772721        2.7820635413
 C          2.6817251907        1.7385227773        3.2266297213
 C          3.6274337360        2.2346246656        2.3410975944
 C          3.3108571869        2.3742432797        1.0001197850
 H          4.0159813067        2.7623555678        0.2832390140
 H          4.6100582884        2.5064021925        2.6915187911
 H          2.9312028647        1.6193307035        4.2691484837
 H          0.6723803186        0.9977338764        3.4560634044
 H          0.1120029635        1.2831347525        1.0741896310
 H          3.4948805685        1.2746020946       -2.2253148886
 H          4.5797476207       -0.8525441728       -2.0259352341
 H          4.4676180532       -3.1511366458       -1.1389632662
 H          2.4481050632       -3.9532264716        0.0022520717
 C          0.1312587651       -2.5590984709        0.4972840157
 H          0.2880970985       -2.3699831388        1.5710196323
 C         -0.1532875676       -4.0368699776        0.3041445345
 C          0.3761898228       -5.0523786682        1.2711429536
 C         -1.0851802480       -4.7232980432        1.2564466313
 H         -1.7796094950       -5.4511823812        0.8646298314
 H         -1.4848933360       -4.1320762845        2.0675547499
 H          0.6867638085       -6.0132008459        0.8890234573
 H          0.9613584831       -4.6956450818        2.1053804727
 H         -0.2191539212       -4.3109813542       -0.7427625650
 O         -1.3294981258       -0.9181377413        2.3170338293
