  62
        -98.94397134
 C         -1.6148007671       -1.5193448537       -0.2651313048
 C         -2.6908470913       -0.9014955440        0.4117207332
 C         -3.1262220449        0.3976139694       -0.1172924790
 C         -2.5145479448        0.9046759616       -1.2029391572
 C         -2.7794422488        2.2560940734       -1.8029589591
 C         -2.0306276933        3.3363330391       -0.9955368896
 C         -2.9391294211        4.3090003046       -0.2405091834
 H         -2.3114107464        4.8496761774        0.4713403865
 H         -3.3419110496        5.0383582998       -0.9472452130
 C         -4.1215547213        3.6877611873        0.5095626096
 H         -4.5007682402        4.4517635314        1.1917200771
 H         -4.9274114839        3.4696334023       -0.1930582590
 C         -3.8129582875        2.4185993321        1.3143261371
 H         -4.3578344106        2.4703552624        2.2594278388
 H         -2.7506750448        2.3709467568        1.5610059332
 C         -4.2272452982        1.1072019537        0.6190662003
 H         -4.5659767710        0.3964185217        1.3785917164
 H         -5.0666230007        1.2950588981       -0.0558346524
 H         -1.3970727133        3.9181449144       -1.6676829481
 H         -1.3573344269        2.8366420929       -0.2940703602
 H         -3.8487368383        2.4549868422       -1.8145293092
 H         -2.4147230202        2.2331578104       -2.8303214359
 O         -1.5095758341        0.2627359860       -1.8501971077
 C         -0.9987537549       -0.9302535034       -1.3673090848
 O         -0.0179208565       -1.3640960741       -2.0036991862
 O         -3.2515259509       -1.4090977681        1.4225131437
 C         -1.0163017493       -2.7963970507        0.2972363242
 C          0.4218990378       -2.5349017914        0.6753548340
 C          1.4637389589       -3.4155773884        0.4142394272
 C          2.7651757365       -3.0818028678        0.7503439023
 C          3.0589656497       -1.8590092961        1.3259810315
 C          2.0208546779       -0.9772302943        1.6029042256
 C          0.7163662058       -1.3341321909        1.3090826971
 H         -0.0778479052       -0.6382974233        1.5366558996
 N          2.2542592849        0.2991585837        2.1591851216
 S          1.8686266498        1.6119926044        1.1870357461
 O          2.2580945631        2.7754685575        1.9550258173
 O          0.4866904684        1.5462132901        0.7897002116
 C          2.9589617196        1.4385562105       -0.2138970822
 C          2.6426448711        0.5452949803       -1.2175644527
 C          3.5490893749        0.3575117946       -2.2505694239
 C          4.7458224617        1.0566268793       -2.2620906202
 C          5.0472789990        1.9514026871       -1.2459459141
 C          4.1496259031        2.1407888750       -0.2083684931
 H          4.3385359946        2.8259951744        0.6023324410
 H          5.9771714288        2.4967955945       -1.2573857116
 H          5.4457951018        0.9029909077       -3.0681999703
 H          3.3044005900       -0.3402416636       -3.0353703062
 H          1.7048344628        0.0118723249       -1.1967478669
 H          3.1929589477        0.4216681482        2.5150873465
 H          4.0775608989       -1.5860293107        1.5574623253
 H          3.5646362128       -3.7753920163        0.5394102537
 H          1.2580835259       -4.3604830638       -0.0616396873
 H         -1.5853410952       -3.0101000692        1.2145158457
 C         -1.1878487081       -3.9508195831       -0.6669431510
 C         -1.3147688212       -5.3533591526       -0.1535162394
 C         -2.5099071267       -4.6535980103       -0.7251077133
 H         -2.8844666928       -4.9686344866       -1.6873687363
 H         -3.2798364039       -4.3145489009       -0.0473390891
 H         -0.8708269801       -6.1540054087       -0.7255818342
 H         -1.2788302190       -5.5000859739        0.9153897199
 H         -0.6644152672       -3.7905704940       -1.6027149448
