  62
        -98.94713837
 C          1.6315186521        1.5268204072       -0.2431944473
 C          2.8253307643        1.2247787477        0.4604333664
 C          3.6148371784        0.0996425267       -0.0556516348
 C          3.1744862429       -0.5721642649       -1.1349748477
 C          3.8531519666       -1.7686082832       -1.7359935897
 C          3.3349170538       -3.0804419424       -1.1291151622
 C          3.2806161190       -3.0767695144        0.3983916536
 H          2.5443363040       -2.3408914814        0.7299338741
 H          2.9224107355       -4.0592677976        0.7132482437
 C          4.6267626280       -2.7893036185        1.0781307131
 H          4.7633098066       -3.4973896733        1.8981767508
 H          5.4414517575       -2.9525574852        0.3714870198
 C          4.7506934115       -1.3872033143        1.6769714428
 H          5.6387967136       -1.3673466591        2.3142871015
 H          3.8866708318       -1.1822923365        2.3140499045
 C          4.8875463136       -0.2411170553        0.6666260609
 H          5.1683330310        0.6591413634        1.2209992378
 H          5.6855051435       -0.4689729307       -0.0430952599
 H          3.9791123627       -3.8932118702       -1.4696161244
 H          2.3283139746       -3.2671316341       -1.5093970093
 H          4.9265745719       -1.6839583799       -1.5768496563
 H          3.6559058415       -1.7721880624       -2.8094983531
 O          2.0278928183       -0.2521651966       -1.7855141124
 C          1.2245868753        0.7978058969       -1.3602562977
 O          0.2074644422        0.9661624772       -2.0593974523
 O          3.2124274185        1.8696332275        1.4705732741
 C          0.7585084072        2.6530016181        0.2886765741
 C         -0.4907484603        2.0177031503        0.8451828858
 C         -0.4660771049        1.4647513204        2.1228701662
 C         -1.5597291502        0.7799228934        2.6189180145
 C         -2.6923341073        0.6089396980        1.8414914434
 C         -2.7197344399        1.1466950788        0.5618819270
 C         -1.6360158571        1.8671896606        0.0790565832
 H         -1.6713952185        2.2699276611       -0.9203996388
 N         -3.8413176656        0.9199282610       -0.2575826039
 S         -4.3732616331       -0.6662000397       -0.3460357668
 O         -4.9346752883       -0.8133773215       -1.6711065831
 O         -5.2836993601       -0.9224556792        0.7438668708
 C         -2.9239324452       -1.6942057108       -0.1574535223
 C         -1.8321252917       -1.4710188198       -0.9722547998
 C         -0.7087617465       -2.2667654253       -0.8172813144
 C         -0.6944053728       -3.2702799677        0.1383345836
 C         -1.8016773312       -3.4862612877        0.9440784240
 C         -2.9264131910       -2.6907284260        0.7981025631
 H         -3.8051699785       -2.8175904511        1.4094739311
 H         -1.7888984318       -4.2672645182        1.6871472730
 H          0.1857594644       -3.8830006949        0.2559243460
 H          0.1512069727       -2.0796322135       -1.4413202226
 H         -1.8409449193       -0.6795789897       -1.7050724313
 H         -3.7431616810        1.3113801165       -1.1836316546
 H         -3.5486932279        0.0611051727        2.2005651220
 H         -1.5279630855        0.3636957695        3.6141775264
 H          0.4312680089        1.5664117690        2.7169680346
 H          1.3239246929        3.0925817970        1.1208245098
 C          0.5001753707        3.7267626839       -0.7463054812
 C         -0.0602192720        5.0456113709       -0.3072662052
 C          1.3639701711        4.9507002532       -0.7631811379
 H          1.6303975121        5.3791032550       -1.7178668494
 H          2.1448342505        5.0225147189       -0.0204351070
 H         -0.7735859876        5.5430151081       -0.9465476011
 H         -0.2473467816        5.1797277919        0.7474127603
 H          0.1844252996        3.3366446784       -1.7060562487
