  62
        -98.94340292
 C         -2.4918649011       -1.1252529181        0.0005473114
 C         -3.4658202457       -0.6132761567        0.9000963455
 C         -4.4436016432        0.3292686153        0.3441706414
 C         -4.3819696715        0.6405417940       -0.9629760401
 C         -5.2812915272        1.6212227308       -1.6566295924
 C         -4.6847373531        3.0355330396       -1.6345707487
 C         -4.2115439358        3.4849837029       -0.2521031672
 H         -3.3662940868        2.8644962709        0.0548082981
 H         -3.8396068029        4.5069262110       -0.3523895685
 C         -5.2941417989        3.4392852989        0.8353087285
 H         -5.2463593981        4.3630663543        1.4156245987
 H         -6.2814158131        3.3977864669        0.3738371452
 C         -5.1492098760        2.2829166303        1.8264139860
 H         -4.1302007214        2.2639564508        2.2210379978
 H         -5.8224205548        2.4696740376        2.6672615678
 C         -5.4794005728        0.8889884907        1.2780394280
 H         -5.5215480572        0.1994336927        2.1261370306
 H         -6.4605298670        0.9047553980        0.7990339414
 H         -5.4367851463        3.7326676412       -2.0085184941
 H         -3.8297383839        3.0612555068       -2.3141911822
 H         -5.4021276102        1.3031814340       -2.6935768362
 H         -6.2549214695        1.6185791947       -1.1703702165
 O         -3.4497028692        0.1204206671       -1.7983075977
 C         -2.4791326411       -0.7620158760       -1.3459840670
 O         -1.6945337537       -1.1293910120       -2.2451659620
 H          0.2413474919       -0.9995938066       -1.1930492820
 C          0.6178928892       -0.9469208906       -0.1820567558
 C         -0.1515719762       -1.4523054895        0.8563519348
 C          0.3445464430       -1.3675970252        2.1521002287
 C          1.5787461777       -0.7917599315        2.3980087467
 C          2.3399765585       -0.2847784278        1.3602504670
 C          1.8517596405       -0.3607561725        0.0622249285
 N          2.6033999248        0.1760985124       -0.9981713631
 S          4.2073195214       -0.2953604315       -1.1484677621
 O          4.5376418320       -0.0880805318       -2.5414974513
 O          4.4200506866       -1.6269242991       -0.6294658033
 C          5.0955161591        0.8913201847       -0.1614043168
 C          5.9680822817        0.4572906661        0.8172923640
 C          6.6599162844        1.3987181642        1.5636233115
 C          6.4686468276        2.7498029471        1.3184199801
 C          5.5899494986        3.1692194734        0.3304483103
 C          4.8962158406        2.2333946142       -0.4199839723
 H          4.2061400216        2.5169738850       -1.1972637870
 H          5.4431752145        4.2207873003        0.1431965655
 H          7.0070291668        3.4807383247        1.9008149650
 H          7.3432199718        1.0747618369        2.3321000681
 H          6.0794080618       -0.6033892323        0.9764006668
 H          2.1305519959        0.1183576752       -1.8890574337
 H          3.3012105583        0.1661866287        1.5454492398
 H          1.9515752282       -0.7344572216        3.4092141767
 H         -0.2494806507       -1.7495007801        2.9696151972
 C         -1.4859510442       -2.1050403373        0.5817139014
 H         -1.9124687723       -2.4066593307        1.5479184623
 C         -1.3044216593       -3.3489502698       -0.2672592575
 C         -0.7733894181       -4.5945561002        0.3735592455
 C         -2.2086849535       -4.5235435781       -0.0522859063
 H         -2.5233548338       -5.0949228834       -0.9126494323
 H         -2.9644283635       -4.4379220016        0.7148822666
 H         -0.0967657293       -5.2159199362       -0.1929507878
 H         -0.5559357026       -4.5592252572        1.4302877290
 H         -0.9997824485       -3.1374485586       -1.2841793409
 O         -3.5173540511       -0.9401443552        2.1155479425
