  62
        -98.93342519
 C         -2.5618420349       -1.2079280756        0.1417069008
 C         -2.7776024833       -0.2641406197       -0.8882436752
 C         -4.1667388355        0.1978750081       -1.0678910038
 C         -5.1297913909       -0.2992825794       -0.2723044671
 C         -6.5887142369        0.0658032057       -0.2579757386
 C         -6.8638911981        1.1735692529        0.7729170808
 C         -6.6863698917        2.5983631975        0.2498191983
 H         -7.4984135513        2.8298420698       -0.4426410441
 H         -6.7821050741        3.2726892033        1.1039933717
 C         -5.3533067081        2.8771171053       -0.4495220477
 H         -5.1887885088        3.9563871587       -0.4387549444
 H         -4.5376935363        2.4221020345        0.1158069432
 C         -5.3197383663        2.3836505353       -1.9036763491
 H         -4.9909366587        3.1972653999       -2.5535870082
 H         -6.3317528892        2.1277955408       -2.2168970384
 C         -4.3804261066        1.1987902955       -2.1705809875
 H         -4.7237355925        0.6657261682       -3.0636162093
 H         -3.3775825757        1.5741173193       -2.3985639794
 H         -6.2011032628        1.0092011413        1.6265342638
 H         -7.8897702280        1.0708810502        1.1324272925
 H         -7.1298033485       -0.8328645982        0.0455594700
 H         -6.9232447290        0.3581769076       -1.2487222409
 O         -4.8756467028       -1.2109840065        0.7077235166
 C         -3.5980594144       -1.6813227519        0.9447026154
 O         -3.5127237971       -2.5019018774        1.8813873503
 O         -1.8559257243        0.1766374661       -1.6240894347
 C         -1.1652773782       -1.7421957229        0.3978389274
 C         -0.2097242731       -0.6094525304        0.6873329716
 C         -0.5893477151        0.3817338531        1.5884014845
 C          0.2626471769        1.4255356947        1.8933316578
 C          1.5158940097        1.5037285165        1.3117075229
 C          1.9115143256        0.5133134463        0.4243568159
 C          1.0539474248       -0.5388800025        0.1232185603
 H          1.3774192144       -1.3011706908       -0.5684829926
 N          3.1801365544        0.5864225466       -0.1772596764
 S          4.4814317957        1.0240401373        0.8071820818
 O          4.4093334279        0.3158569916        2.0656802274
 O          4.5267866065        2.4620525642        0.8967175557
 C          5.8541278074        0.4319151381       -0.1628823577
 C          6.3556703634        1.2329598273       -1.1711316704
 C          7.4043416320        0.7587438505       -1.9431450667
 C          7.9294912637       -0.5011973308       -1.6968665850
 C          7.4156543788       -1.2933828315       -0.6810950355
 C          6.3665124409       -0.8257256419        0.0944431026
 H          5.9425608164       -1.4030733097        0.9005106033
 H          7.8277145888       -2.2712805132       -0.4905510947
 H          8.7463163743       -0.8674356551       -2.2985342844
 H          7.8083894690        1.3720883909       -2.7322954946
 H          5.9211533117        2.2075350685       -1.3207267320
 H          3.3923421424       -0.2371277930       -0.7237427321
 H          2.1919642952        2.3118671798        1.5409089418
 H         -0.0503326418        2.1883150786        2.5910429279
 H         -1.5678512249        0.3235374845        2.0468117299
 H         -1.2389313007       -2.3607866190        1.3048296616
 C         -0.7338840070       -2.6225797377       -0.7574062914
 C          0.2047760929       -3.7683897352       -0.5293241632
 C         -1.2421757870       -4.0304755558       -0.8178167905
 H         -1.5122658039       -4.4407711416       -1.7792303175
 H         -1.8766540956       -4.3614743800       -0.0083447100
 H          0.9272432945       -4.0051377980       -1.2961102804
 H          0.5575176999       -3.9332366431        0.4777284892
 H         -0.6628235050       -2.0755631686       -1.6907279210
