  62
        -98.93310467
 C          2.4412832374        0.9822514562        0.2407636191
 C          3.0660871601       -0.0133887346        1.0287384153
 C          3.4077656013       -1.2872505786        0.3667481877
 C          3.0731727979       -1.4501780513       -0.9265651432
 C          3.2663740969       -2.6661422759       -1.7928119311
 C          2.2437274446       -3.7724539892       -1.4875301937
 C          2.0116562103       -4.0417992618       -0.0029646404
 H          1.6684702621       -3.1223498447        0.4758031274
 H          1.1973989638       -4.7669634991        0.0771007869
 C          3.2134757397       -4.5992082683        0.7566964821
 H          3.5236806394       -5.5382192053        0.2932123787
 H          2.8774653410       -4.8247921726        1.7719855785
 C          4.4324009624       -3.6791399377        0.8538216709
 H          4.9961030906       -3.6755106868       -0.0751134425
 H          5.0945750133       -4.0974311534        1.6173806871
 C          4.1207815157       -2.2498531787        1.2861809199
 H          3.5321910327       -2.2746996001        2.2103446631
 H          5.0613313406       -1.7554181015        1.5580858361
 H          2.5697127024       -4.6897386914       -1.9809561086
 H          1.2855580892       -3.4751186352       -1.9222109566
 H          4.2820482796       -3.0381318104       -1.6960077602
 H          3.1262452452       -2.3404000564       -2.8259458557
 O          2.4327958433       -0.4792628495       -1.6379557663
 C          2.0874720041        0.7430510901       -1.0880771819
 O          1.4894629645        1.5010223885       -1.8748509596
 O          3.3203745055        0.1453128215        2.2540333571
 C          2.0518630904        2.2830928959        0.9219610408
 C          0.6081654692        2.5897816634        0.6120088959
 C          0.1682788123        3.7634161059        0.0161135284
 C         -1.1716947469        3.9371526962       -0.2873061856
 C         -2.0984076735        2.9502544904       -0.0070048498
 C         -1.6686933228        1.7766363711        0.5959031362
 C         -0.3316988539        1.6106228124        0.9115917752
 H         -0.0002958569        0.6843719270        1.3683259930
 N         -2.6105992275        0.7480749786        0.8606622077
 S         -3.0372655981       -0.1610700952       -0.5040705235
 O         -2.1221379739       -1.2762443309       -0.6469187812
 O         -3.1724986403        0.7211849398       -1.6332383580
 C         -4.6423555366       -0.7631348824       -0.0141069603
 C         -4.7820666327       -2.0567950265        0.4481956207
 C         -6.0338145818       -2.4918870172        0.8554477655
 C         -7.1171077222       -1.6287173224        0.7975614280
 C         -6.9606844356       -0.3316492330        0.3314074613
 C         -5.7123554198        0.1082640751       -0.0778089692
 H         -5.5443077334        1.1033401108       -0.4548362791
 H         -7.8057011026        0.3362708237        0.2860957873
 H         -8.0896903895       -1.9694861096        1.1157608728
 H         -6.1579299142       -3.5003869910        1.2159554818
 H         -3.9133705073       -2.6951273831        0.4688387617
 H         -2.2486035539        0.0918331485        1.5417427952
 H         -3.1374972746        3.0632388864       -0.2680148398
 H         -1.4951963683        4.8509153711       -0.7623667912
 H          0.8790211441        4.5312619677       -0.2420910029
 H          2.1277314239        2.0568672423        1.9993604244
 C          2.9955847949        3.4458863959        0.6595636273
 C          4.4325329207        3.2074465506        0.3065242950
 C          3.4963076438        3.7815126048       -0.7120670058
 H          3.6051697749        4.8234390101       -0.9758316712
 H          3.1720239337        3.1559650171       -1.5286362204
 H          5.1815696017        3.8521072749        0.7411574724
 H          4.7539413459        2.1831110443        0.1842543746
 H          2.7986188157        4.2824880276        1.3229149426
