  62
        -98.94262534
 C         -1.9547083197       -1.5556105290       -0.0544264798
 C         -1.5762627098       -0.2746704987       -0.5303223792
 C         -2.6678503299        0.7066893113       -0.6529052388
 C         -3.9268742398        0.3442840010       -0.3514134588
 C         -5.1185605999        1.2555586010       -0.3938498984
 C         -5.3558736299        1.9208807304        0.9690027819
 C         -4.1002433899        2.5468609502        1.5761301221
 H         -4.3936085598        3.0135499198        2.5191074724
 H         -3.3878098698        1.7547539301        1.8184581917
 C         -3.4145901400        3.5882750406        0.6809245226
 H         -4.1111662300        3.9341432609       -0.0837165373
 H         -3.1503336600        4.4534783704        1.2927125629
 C         -2.1256375300        3.1044612310        0.0132067923
 H         -1.6178659601        3.9768961112       -0.4054641474
 H         -1.4644380099        2.6669423407        0.7652966020
 C         -2.2982680500        2.0860412715       -1.1204678482
 H         -3.0264224800        2.4577487218       -1.8441497780
 H         -1.3316159700        1.9796687118       -1.6210980383
 H         -5.7318760598        1.1651762301        1.6627572616
 H         -6.1259124499        2.6855365004        0.8510179223
 H         -4.9635652500        2.0140056113       -1.1585881481
 H         -5.9964265899        0.6624089811       -0.6560533786
 O         -4.2536767697       -0.9002715292        0.0828402506
 C         -3.2772421297       -1.8633682992        0.2755731202
 O         -3.7056016796       -2.9395388294        0.7388881397
 H          1.6504038603       -2.3456699884       -0.7380321703
 C          1.5164155103       -1.9690946389        0.2638824999
 C          0.2763701004       -2.0569812992        0.8743824199
 C          0.1270062704       -1.5327954198        2.1552891501
 C          1.1892301104       -0.9304792300        2.8018453003
 C          2.4250961204       -0.8380679097        2.1857936903
 C          2.5832220503       -1.3564249391        0.9080450201
 N          3.8338740403       -1.2679502288        0.2672173400
 S          4.5764839302        0.2289038813        0.1658224607
 O          5.6124258502        0.0608232818       -0.8291968995
 O          5.0195479002        0.6286059208        1.4783356108
 C          3.3332767901        1.3563755515       -0.4328592988
 C          2.6394954001        2.1485866411        0.4578737016
 C          1.6634633000        3.0023688312       -0.0285268580
 C          1.3969848699        3.0446029618       -1.3872684779
 C          2.0970361799        2.2360686922       -2.2680844683
 C          3.0735808000        1.3804686221       -1.7880708888
 H          3.6480907000        0.7446965924       -2.4428418991
 H          1.8812063999        2.2665373227       -3.3242428883
 H          0.6381813899        3.7128842219       -1.7634813276
 H          1.1115867100        3.6294351909        0.6534279423
 H          2.8794448802        2.0908486506        1.5070589016
 H          3.8449193403       -1.7108249284       -0.6406915702
 H          3.2628782204       -0.3638240898        2.6707240305
 H          1.0554999504       -0.5260759005        3.7941282705
 H         -0.8422400696       -1.5918168901        2.6327592401
 C         -0.9291201996       -2.6508366890        0.1896945097
 H         -1.4141267795       -3.3448093993        0.8956302694
 C         -0.5786712296       -3.4661547084       -1.0460782007
 C         -1.6021735897       -3.7262950980       -2.1095002407
 C         -0.4255609398       -2.8467856678       -2.4018114104
 H          0.3456561902       -3.2286928575       -3.0554380306
 H         -0.5845191398       -1.7835299378       -2.4873454800
 H         -1.6375364597       -4.7080501778       -2.5574606412
 H         -2.5724523897       -3.2660214082       -1.9928056005
 H          0.0854950404       -4.2920273985       -0.8082444811
 O         -0.4018727798        0.0477219615       -0.8412305692
