  62
        -98.94341984
 C         -2.5051271554       -1.1391211029        0.0056855972
 C         -3.4578187829       -0.5902706225        0.9063040939
 C         -4.4068928444        0.3754967615        0.3452708293
 C         -4.3559466350        0.6718620196       -0.9656572455
 C         -5.2698619427        1.6157468813       -1.6986273838
 C         -4.8549624582        3.0901299228       -1.5988275654
 C         -5.0897894322        3.7411593407       -0.2351557043
 H         -6.1211736734        3.5702563767        0.0747502390
 H         -4.9639611204        4.8174562490       -0.3685736668
 C         -4.1328871561        3.2656406778        0.8671256214
 H         -3.7549195841        4.1293726745        1.4186274982
 H         -3.2690554299        2.7738686662        0.4135464689
 C         -4.7619055601        2.3171930693        1.8878575216
 H         -5.5417543551        2.8420505522        2.4440084235
 H         -3.9870149881        2.0149805105        2.5968965133
 C         -5.3684023416        1.0461365610        1.2791298623
 H         -6.2980210202        1.2827514571        0.7619162044
 H         -5.5860137258        0.3470942019        2.0902476683
 H         -5.4317327251        3.6414683190       -2.3450498140
 H         -3.7990642967        3.1747128664       -1.8661510036
 H         -5.2433275602        1.3206241335       -2.7498441056
 H         -6.2893478513        1.4976899308       -1.3303419825
 O         -3.4466261752        0.1087199558       -1.8020539623
 C         -2.4900381812       -0.7865047308       -1.3435936998
 O         -1.7160854732       -1.1771137573       -2.2423641579
 H          0.2337897846       -1.0872909755       -1.1964883240
 C          0.6051658401       -1.0159316136       -0.1847243363
 C         -0.1741838275       -1.4920837805        0.8600771274
 C          0.3146894911       -1.3819172995        2.1566585928
 C          1.5509844079       -0.8083487672        2.3972607069
 C          2.3214875783       -0.3288496157        1.3532863969
 C          1.8409825748       -0.4313913473        0.0541897288
 N          2.5992457566        0.0793489426       -1.0132130541
 S          4.2164970749       -0.3518868145       -1.1261116066
 O          4.5559854120       -0.1983159158       -2.5238594645
 O          4.4617388216       -1.6515598487       -0.5447587589
 C          5.0580003835        0.9049392042       -0.1859564709
 C          4.8222420945        2.2266916239       -0.5100456569
 C          5.4779357249        3.2176058802        0.2028518537
 C          6.3555751229        2.8720828842        1.2199009579
 C          6.5838841425        1.5404853115        1.5310477761
 C          5.9303376463        0.5442665227        0.8222258813
 H          6.0717643399       -0.5038923501        1.0325434775
 H          7.2665544091        1.2742022102        2.3218969868
 H          6.8644428585        3.6456511414        1.7730433489
 H          5.3026238481        4.2542361035       -0.0361764230
 H          4.1345866643        2.4523326329       -1.3081300104
 H          2.1386250561       -0.0083797125       -1.9077784839
 H          3.2842430378        0.1205944711        1.5341655463
 H          1.9178292397       -0.7303396359        3.4092715448
 H         -0.2872661659       -1.7408267303        2.9787549160
 C         -1.5158733149       -2.1326149449        0.5921061278
 H         -1.9456954973       -2.4200630749        1.5611766607
 C         -1.3544045256       -3.3851840985       -0.2475386667
 C         -0.8376531754       -4.6328237800        0.4010948523
 C         -2.2735372957       -4.5457628056       -0.0197107857
 H         -2.5992663642       -5.1195717273       -0.8743226658
 H         -3.0249919732       -4.4441263860        0.7496989128
 H         -0.6156022998       -4.5921222707        1.4566937715
 H         -0.1718977714       -5.2679452853       -0.1630614984
 H         -1.0515619474       -3.1861168926       -1.2674348339
 O         -3.5158635069       -0.9040979768        2.1245284363
