  62
        -98.93836191
 C         -2.5125736704       -0.1898546676        0.4645790045
 C         -2.2887125348        0.5327933386       -0.7287280359
 C         -2.0026412591        1.9747449407       -0.5927562634
 C         -1.9666736729        2.5157747325        0.6388988420
 C         -1.6826949093        3.9421067068        1.0335212169
 C         -0.1935065190        4.3033444979        0.9473300956
 C          0.4959723004        3.8730485497       -0.3439695873
 H          1.5521610636        4.1426625628       -0.2558342200
 H          0.4556373274        2.7849203307       -0.4257480412
 C         -0.0460835133        4.5190875953       -1.6174835425
 H          0.6197705767        4.2260001734       -2.4328520572
 H          0.0085544530        5.6055916248       -1.5173868776
 C         -1.4736973516        4.1357115613       -2.0176663201
 H         -1.6044632759        4.4201095240       -3.0657845782
 H         -2.2113373808        4.6984591270       -1.4514316954
 C         -1.7762517224        2.6440156247       -1.9263670726
 H         -2.6762399997        2.4293732976       -2.5150007788
 H         -0.9722303045        2.0804155919       -2.4139141299
 H          0.3238684762        3.8136512461        1.7766270024
 H         -0.0957189274        5.3834821688        1.0755538506
 H         -2.0053030688        4.0457820028        2.0723430271
 H         -2.2776623798        4.6231911047        0.4320715457
 O         -2.1861093742        1.7748579258        1.7656572949
 C         -2.4376764604        0.4190136427        1.7141055006
 O         -2.5870511348       -0.1247984083        2.8303334665
 O         -2.3262232978        0.0021775296       -1.8709363371
 C         -2.7530547901       -1.6862849352        0.4110589286
 C         -1.5974525287       -2.3760216434       -0.2758182975
 C         -1.7511850919       -3.5015527374       -1.0749717167
 C         -0.6473275314       -4.0973899357       -1.6616691655
 C          0.6219738495       -3.5820817488       -1.4785060071
 C          0.7852764697       -2.4501575774       -0.6850793370
 C         -0.3167366715       -1.8786184684       -0.0734403377
 H         -0.1774303871       -1.0161902725        0.5622581659
 N          2.0518032053       -1.8626547255       -0.5354392991
 S          2.3193591383       -0.6129064467        0.5524689099
 O          2.0761240388       -1.0525776786        1.9109990808
 O          1.5981966928        0.5533113259        0.1116642303
 C          4.0688595631       -0.3775376033        0.3033692525
 C          4.4930309608        0.4692209633       -0.7027168943
 C          5.8531689082        0.6268134073       -0.9174311518
 C          6.7616862596       -0.0630210874       -0.1285532892
 C          6.3215581869       -0.9080794025        0.8791400266
 C          4.9626731520       -1.0693511075        1.0990721063
 H          4.5744414018       -1.7049818024        1.8787145472
 H          7.0299210555       -1.4402145545        1.4933622427
 H          7.8195292324        0.0612970366       -0.2979035199
 H          6.1986014003        1.2859851482       -1.6973701210
 H          3.7488656593        0.9884144996       -1.2842499713
 H          2.8248702558       -2.5078726742       -0.6043811083
 H          1.4780551642       -4.0393827698       -1.9495142316
 H         -0.7798080581       -4.9741091630       -2.2773945824
 H         -2.7346727601       -3.9107633409       -1.2395248352
 H         -2.7780284321       -2.0266520334        1.4581171074
 C         -4.0920596209       -1.9863323149       -0.2325110807
 C         -4.9034425748       -3.1644784361        0.2137527061
 C         -5.3398905074       -1.7761329220        0.5697374544
 H         -6.2068138224       -1.3620668922        0.0773932735
 H         -5.2180767547       -1.4451553753        1.5913046857
 H         -5.4765090837       -3.7050728563       -0.5244223890
 H         -4.4982040970       -3.7823241960        1.0010143320
 H         -4.1165033321       -1.7106850112       -1.2805134004
