  62
        -98.93132967
 C          2.2321924328        0.6131317439        0.1571095616
 C          3.5064972700        1.0085772039        0.6314973672
 C          4.6885324103        0.4531835880       -0.0558861751
 C          4.4963755190       -0.4097113904       -1.0704381899
 C          5.5323975404       -1.1278139717       -1.8938404332
 C          6.1755321001       -2.3043897489       -1.1420945345
 C          6.5555486535       -2.0106617694        0.3067678089
 H          5.6651831359       -1.6945642272        0.8533892996
 H          6.8963217731       -2.9469592548        0.7566003040
 C          7.6610289579       -0.9740495832        0.4926530080
 H          7.8901829440       -0.9326732538        1.5605618737
 H          8.5603413280       -1.3124779583       -0.0267450348
 C          7.3341211320        0.4451650099        0.0232013201
 H          7.4073655325        0.5281117534       -1.0578302781
 H          8.0987308260        1.1088151824        0.4375268267
 C          5.9884713629        0.9810660127        0.5020458839
 H          5.9637277216        2.0642746787        0.3310667739
 H          5.9202159304        0.8617454199        1.5893667559
 H          7.0598235753       -2.6247497744       -1.6954722949
 H          5.4615065607       -3.1315144234       -1.1373642443
 H          5.0165700362       -1.5181203172       -2.7739417617
 H          6.2877657730       -0.4268730448       -2.2365169055
 O          3.2505298352       -0.7934742641       -1.4690179443
 C          2.0936915069       -0.3104831525       -0.8792379268
 O          1.0481452790       -0.7806865166       -1.3644451699
 O          3.6601003135        1.7953775984        1.6047266067
 C          1.0132246539        1.1889263830        0.8538291580
 C          0.0147535688        0.1026766523        1.1616307918
 C          0.3621646590       -0.8869041471        2.0781745181
 C         -0.5206427025       -1.9017945360        2.3910009483
 C         -1.7758086719       -1.9423486004        1.8097470610
 C         -2.1286148471       -0.9651506143        0.8870657755
 C         -1.2355396429        0.0483241820        0.5682600977
 H         -1.5282757453        0.7803747313       -0.1656456615
 N         -3.3819373095       -0.9975946370        0.2562052386
 S         -4.1324717643        0.4604627859       -0.1349591652
 O         -3.6417607356        0.9251124469       -1.4077231102
 O         -4.0192416170        1.3882586022        0.9688820608
 C         -5.8208910512       -0.0882231736       -0.3093410285
 C         -6.7090347714        0.0953337503        0.7335215880
 C         -8.0099484131       -0.3628026192        0.5946557051
 C         -8.3973936495       -0.9961302883       -0.5765497013
 C         -7.4946943896       -1.1729830685       -1.6148925093
 C         -6.1931537778       -0.7158556484       -1.4834258110
 H         -5.4593757620       -0.8224252897       -2.2655442633
 H         -7.8000781356       -1.6637594099       -2.5249191434
 H         -9.4099783943       -1.3520729991       -0.6823912361
 H         -8.7149627326       -0.2239574681        1.3983668109
 H         -6.3644451079        0.5995248716        1.6220088159
 H         -4.0236753210       -1.6530481629        0.6803158889
 H         -2.4696329655       -2.7316045494        2.0567928360
 H         -0.2348019750       -2.6636161052        3.1008198769
 H          1.3412357647       -0.8509569645        2.5371510129
 H          1.4018386475        1.5718953096        1.8130956026
 C          0.3890598115        2.3766013341        0.1370857474
 C          1.2273441767        3.3338748202       -0.6542885461
 C          0.2520941838        2.4371660150       -1.3533455067
 H         -0.6499917203        2.8678475179       -1.7643309177
 H          0.6310349754        1.6045749208       -1.9254631794
 H          1.0042348396        4.3880645955       -0.5882880582
 H          2.2805377048        3.1130703120       -0.7497451786
 H         -0.4245444813        2.8105849734        0.7126028691
