  62
        -98.93762550
 C         -1.3708240462       -1.5469939573        0.0200801667
 C         -1.9965574609       -0.6621010681        0.9282463425
 C         -3.0815576507        0.1761695682        0.3908084991
 C         -3.4047816717        0.0833807916       -0.9126034512
 C         -4.4746343950        0.7891307397       -1.7192422331
 C         -5.1304564621        2.0663852740       -1.1986519773
 C         -4.1941364648        3.2669210027       -1.0669377976
 H         -4.7586131672        4.0885333597       -0.6203361245
 H         -3.8864507347        3.5813364355       -2.0676186216
 C         -2.9278112973        3.0327397540       -0.2459628496
 H         -2.3742163347        3.9751368825       -0.2129997501
 H         -2.2908363322        2.3057012367       -0.7549062836
 C         -3.1552356640        2.5730961705        1.1931936011
 H         -3.8290105570        3.2674177076        1.6984270036
 H         -2.1894936859        2.6063152544        1.7029324398
 C         -3.7052576349        1.1446056802        1.3532558852
 H         -4.7892241633        1.1221673671        1.2713733146
 H         -3.4434132819        0.7930955891        2.3552076360
 H         -5.6340191651        1.8753477483       -0.2556318943
 H         -5.9058581326        2.3322230911       -1.9224375540
 H         -4.0223482415        0.9919095704       -2.6953444462
 H         -5.2600531956        0.0450472897       -1.8930761397
 O         -2.7688090246       -0.7856125929       -1.7532226986
 C         -1.7419776112       -1.6125315570       -1.3213700610
 O         -1.2519436185       -2.3298176798       -2.2137933968
 H          0.5150160158       -0.1037265169       -0.6349813300
 C          1.3013233932       -0.8478827432       -0.6742478299
 C          1.0693801983       -2.1121970316       -0.1503171304
 C          2.1024039408       -3.0422189972       -0.2046210129
 C          3.3234757193       -2.7145036960       -0.7679322172
 C          3.5451076160       -1.4542193366       -1.2941349825
 C          2.5193033583       -0.5220414005       -1.2520800814
 N          2.7531372495        0.7810172621       -1.7606567468
 S          3.5934600948        1.7684497882       -0.6956931187
 O          3.6236124938        3.0801097354       -1.3009397280
 O          4.8671025046        1.1564346600       -0.4199601123
 C          2.5794020618        1.7895551451        0.7702728787
 C          2.6627074786        0.7328289641        1.6555769497
 C          1.7850922883        0.6888853240        2.7269470377
 C          0.8468132564        1.6949228367        2.8959051430
 C          0.7846769387        2.7546916664        2.0042226885
 C          1.6499570779        2.7986785341        0.9231595598
 H          1.6282152134        3.5995266300        0.2009809956
 H          0.0604653957        3.5420519486        2.1427105406
 H          0.1547111141        1.6441739740        3.7213351085
 H          1.8251963158       -0.1354207694        3.4204150811
 H          3.4081677732       -0.0293218211        1.4947447395
 H          1.9014223834        1.2542014663       -2.0302832360
 H          4.4932264653       -1.1737192772       -1.7224416559
 H          4.1130576365       -3.4496003142       -0.7977183384
 H          1.9487159568       -4.0292314904        0.2006358377
 C         -0.2454635888       -2.4257820340        0.5227306412
 H         -0.1390099093       -2.1737939974        1.5895519504
 C         -0.6222719308       -3.8906540841        0.4062229258
 C         -0.2217130640       -4.8728260203        1.4652974304
 C         -1.6525278231       -4.4465996764        1.3421086142
 H         -2.3743782284       -5.1505717001        0.9562327150
 H         -2.0528386585       -3.7774753671        2.0898695889
 H          0.3406637817       -4.5022724777        2.3091055177
 H          0.0398648742       -5.8762027861        1.1642819721
 H         -0.6493505243       -4.2298910721       -0.6231396836
 O         -1.6647439234       -0.5756543587        2.1398782819
