  62
        -98.94444394
 C          1.7061008322        1.4475615798        0.5619652259
 C          2.6352134324        1.0082209347       -0.4133285483
 C          3.4002742089       -0.1974109395       -0.0632856730
 C          3.1524712082       -0.8470444376        1.0873911244
 C          3.8538252922       -2.0845468256        1.5785664628
 C          3.2995394283       -3.3950323349        1.0027664268
 C          3.6221005503       -3.6492502219       -0.4702813432
 H          4.6968635617       -3.5510447632       -0.6263633918
 H          3.3586681072       -4.6877820666       -0.6809234773
 C          2.8720344630       -2.7380557415       -1.4525586307
 H          2.0274613711       -2.2659085501       -0.9461668432
 H          2.4640384225       -3.3382537200       -2.2686940981
 C          3.7333180590       -1.6440864001       -2.0822744575
 H          4.5146172815       -2.0961729862       -2.6973608482
 H          3.0971711414       -1.0402363284       -2.7339844021
 C          4.3938458554       -0.7053973479       -1.0645735254
 H          5.2150785603       -1.2140508149       -0.5600337795
 H          4.7943787622        0.1567304439       -1.6033525566
 H          2.2174303752       -3.4105560669        1.1474589900
 H          3.7239237864       -4.2121690496        1.5908837062
 H          4.9191531496       -2.0115532569        1.3576323188
 H          3.7263257651       -2.1045283959        2.6632748517
 O          2.2112397025       -0.4237713419        1.9736443556
 C          1.4686377450        0.7177796633        1.7307466296
 O          0.6345690938        0.9811675759        2.6213719713
 H         -1.5711285193        2.0850744979        1.4230671216
 C         -1.5608301503        1.9041853132        0.3566297122
 C         -0.4123090378        2.1898449690       -0.3676755610
 C         -0.3987834480        1.9198080447       -1.7319822389
 C         -1.5123065706        1.3764578201       -2.3475216101
 C         -2.6525893278        1.0803059458       -1.6199412096
 C         -2.6712064584        1.3430229002       -0.2569334844
 N         -3.8099654138        1.0091848962        0.5017756147
 S         -4.3799923477       -0.5539160370        0.3216205535
 O         -5.2259799210       -0.6234893301       -0.8438037649
 O         -5.0178440819       -0.8793290583        1.5781408249
 C         -2.9376092877       -1.5777831485        0.0715243877
 C         -1.9000056775       -1.5012128284        0.9794821493
 C         -0.7855969519       -2.3025234746        0.7928676676
 C         -0.7296715105       -3.1703850814       -0.2867399674
 C         -1.7785176881       -3.2339520226       -1.1907795558
 C         -2.8920684458       -2.4288142333       -1.0141125033
 H         -3.7269232723       -2.4417675819       -1.6957883094
 H         -1.7294893819       -3.9068216158       -2.0315392765
 H          0.1356443557       -3.7997630186       -0.4248222240
 H          0.0327172706       -2.2321734020        1.4935974730
 H         -1.9547645898       -0.8243622171        1.8176643342
 H         -3.7184071879        1.2383941705        1.4813717381
 H         -3.5221132315        0.6413955175       -2.0822409951
 H         -1.4900103111        1.1693471841       -3.4065357369
 H          0.5006371468        2.1079509649       -2.2970622625
 C          0.8136374734        2.6669859255        0.3716819310
 H          0.4978973788        2.9687530007        1.3796402020
 C          1.4907791625        3.8485587549       -0.2866060866
 C          0.8493263699        5.1976051175       -0.1697901766
 C          2.1163098533        4.9028427577        0.5742383640
 H          3.0328458703        5.3639860726        0.2384142584
 H          2.0606749568        4.7755933535        1.6459159544
 H          0.8932331539        5.8636957507       -1.0175894514
 H         -0.0668303568        5.2689865855        0.3974001724
 H          1.9939697166        3.6078516058       -1.2123578477
 O          2.8389188703        1.5730261951       -1.5183072418
