  62
        -98.94208318
 C         -1.4651726904       -1.1236922589        0.6414013308
 C         -2.3983831900       -0.9077540193       -0.4015767696
 C         -2.9373769596        0.4594574908       -0.4953041606
 C         -2.4954435196        1.4258537311        0.3265406289
 C         -2.9229246293        2.8683733612        0.3168272679
 C         -4.2223601395        3.1432626120        1.0862545973
 C         -5.4991418594        2.6478694619        0.4059051972
 H         -6.3403995594        3.0962221225        0.9381688067
 H         -5.5281509189        3.0167866613       -0.6198156730
 C         -5.6682229097        1.1222573620        0.4110458481
 H         -5.0013864101        0.6848974823        1.1575133686
 H         -6.6895227399        0.8700031324        0.7048959579
 C         -5.4060953795        0.4514793611       -0.9373019514
 H         -6.1494668692        0.7860851008       -1.6642541119
 H         -5.5194439598       -0.6283097088       -0.8120090108
 C         -4.0084982792        0.7156202104       -1.5127072311
 H         -3.8434580191        0.0288146899       -2.3468222507
 H         -3.9394413588        1.7374029902       -1.8863962717
 H         -4.1406746399        2.6948774226        2.0790537676
 H         -4.3011427892        4.2252165321        1.2150689267
 H         -2.1140856093        3.4323808713        0.7868777479
 H         -3.0247366489        3.2105024506       -0.7137106823
 O         -1.5616443900        1.1916346815        1.2853097594
 C         -1.0297362804       -0.0721502485        1.4537247003
 O         -0.1764077107       -0.1482394382        2.3628324606
 O         -2.7834230199       -1.7789214497       -1.2230663292
 C         -0.7439766508       -2.4376543089        0.9165043818
 C          0.7136657294       -2.2800783195        0.5582496422
 C          1.7206549790       -2.8470898493        1.3304027829
 C          3.0514948591       -2.6654519998        0.9974926732
 C          3.4040372597       -1.8807528906       -0.0860854372
 C          2.4038479301       -1.2993671808       -0.8553371778
 C          1.0715614899       -1.5302024003       -0.5523970081
 H          0.3089731802       -1.0714325804       -1.1643900686
 N          2.7006968006       -0.4255651315       -1.9250741183
 S          2.2667910009        1.1754116988       -1.6568558894
 O          0.8490991509        1.2697972493       -1.4265380599
 O          2.7850405015        1.9036175880       -2.7950831196
 C          3.1853152406        1.6249795594       -0.1945660093
 C          2.6899932501        1.2905440903        1.0499141107
 C          3.4600957298        1.5685599508        2.1693671108
 C          4.7015535900        2.1685624504        2.0278484908
 C          5.1832984505        2.5002589395        0.7701053908
 C          4.4223702308        2.2209849990       -0.3529997193
 H          4.7527272412        2.4630393084       -1.3503692893
 H          6.1474348106        2.9703381492        0.6618605008
 H          5.2948379398        2.3795753908        2.9035107609
 H          3.0755717094        1.3067025415        3.1421285808
 H          1.7193583799        0.8277001906        1.1416462307
 H          3.6692534507       -0.4563054219       -2.2157750979
 H          4.4417870698       -1.7069381710       -0.3278098269
 H          3.8227860288       -3.1150722496        1.6035445837
 H          1.4558341986       -3.4143815087        2.2104463231
 H         -0.7909945312       -2.5920162283        2.0084327919
 C         -1.3741965409       -3.6553735792        0.2610691924
 C         -0.8657298706       -4.2352617901       -1.0207923371
 C         -0.6673636612       -4.9784478893        0.2643669834
 H         -1.2523409515       -5.8683777591        0.4401759437
 H          0.3330703787       -5.0181238493        0.6666040737
 H         -1.5937884205       -4.5948175003       -1.7314201971
 H         -0.0066780703       -3.7692884406       -1.4797933871
 H         -2.4482548209       -3.6805953188        0.4037976820
