  62
        -98.93994390
 C          2.7684105638        0.0799138957        0.4104403746
 C          2.8052939679        1.0414939489       -0.6336585337
 C          2.2577877651        2.3646380594       -0.3279817538
 C          1.7775008314        2.6124102181        0.9035341485
 C          1.1266407294        3.8891633389        1.3604088841
 C         -0.3623629152        3.9679364001        0.9932135450
 C         -0.6522823991        4.2579226085       -0.4806053272
 H         -1.7038725560        4.5438190214       -0.5479055269
 H         -0.0593003442        5.1130770647       -0.8080324543
 C         -0.4066769325        3.0650868163       -1.4154853342
 H         -1.2421551605        2.9736579185       -2.1143310576
 H         -0.3820682615        2.1447845012       -0.8265490489
 C          0.8670539781        3.1635720024       -2.2558412184
 H          0.9690221347        2.2383637828       -2.8291411375
 H          0.7754317502        3.9920953563       -2.9625865993
 C          2.1542481421        3.3588313514       -1.4450422535
 H          3.0051190268        3.1966908223       -2.1117352657
 H          2.2037547478        4.3747007611       -1.0534899419
 H         -0.8068359520        4.7637693505        1.5959848437
 H         -0.8383675237        3.0246320614        1.2743167140
 H          1.2176360924        3.9147839561        2.4484711562
 H          1.6564626559        4.7471397403        0.9449240689
 O          1.8421032355        1.6985557385        1.9045142552
 C          2.2797990097        0.3958807745        1.6788186249
 O          2.2043518547       -0.3278771762        2.6899799437
 H          0.4922589426       -0.9698759144        0.4052401339
 C          0.6732873186       -1.5646116331       -0.4770705421
 C          1.9771430580       -1.8784323069       -0.8333040034
 C          2.1889594254       -2.6570359964       -1.9637523933
 C          1.1150718460       -3.1104600877       -2.7111627594
 C         -0.1808955835       -2.7751845918       -2.3648829481
 C         -0.4022950784       -1.9759766528       -1.2466134242
 N         -1.6966778461       -1.5381739370       -0.9277357949
 S         -2.0538305805       -0.8304261120        0.5561834682
 O         -1.3626075931        0.4280282779        0.6617442619
 O         -1.8509985066       -1.7831585748        1.6265175481
 C         -3.7950143546       -0.5327545033        0.3233308489
 C         -4.7174751473       -1.4422866710        0.8042057173
 C         -6.0663847902       -1.2063630911        0.5887155641
 C         -6.4670501823       -0.0721766968       -0.1013406496
 C         -5.5293902091        0.8333561633       -0.5756341346
 C         -4.1795695106        0.6035080287       -0.3628602944
 H         -3.4136946578        1.2815144838       -0.7029066712
 H         -5.8441933254        1.7162222640       -1.1081607004
 H         -7.5171145514        0.1091995135       -0.2676896367
 H         -6.7978048057       -1.9058029007        0.9602264207
 H         -4.3596452289       -2.3038488129        1.3447695638
 H         -2.4331626991       -2.1454900282       -1.2566901250
 H         -1.0148204168       -3.1101323996       -2.9618590203
 H          1.2905176378       -3.7215067619       -3.5835503399
 H          3.1991695259       -2.8895137868       -2.2668648040
 C          3.1225042117       -1.3376833627       -0.0080437318
 H          3.9927166697       -1.2472220981       -0.6792821568
 C          3.5141193231       -2.2646528249        1.1291449183
 C          2.5570564016       -3.2361504202        1.7450935869
 C          3.6820063407       -3.7366550254        0.8922618833
 H          4.5057441610       -4.2417518518        1.3731819114
 H          3.4327381022       -4.1216651542       -0.0844922559
 H          1.5513528982       -3.2740827691        1.3531154440
 H          2.6028846962       -3.3733415058        2.8145080497
 H          4.2194429949       -1.7959900555        1.8068914636
 O          3.2677233917        0.7901851991       -1.7798067505
