  62
        -98.93635054
 C         -1.0381677302       -1.5326655950        0.7729075465
 C         -1.6676537752       -1.2848773958       -0.4708919669
 C         -2.6876275069       -0.2182000570       -0.4879432736
 C         -2.8938267495        0.5190440900        0.6158026967
 C         -3.8837858374        1.6341934995        0.8464154023
 C         -4.1495481389        2.6096321717       -0.3055529403
 C         -2.9156243541        2.9567345806       -1.1507159429
 H         -2.8199726140        4.0419513639       -1.2099006756
 H         -2.0157055884        2.5711388419       -0.6699965694
 C         -2.9909463165        2.4119128318       -2.5780275385
 H         -3.9994549065        2.5691892352       -2.9668526880
 H         -2.3041026346        2.9802077210       -3.2092844565
 C         -2.6232031779        0.9365111022       -2.7218229271
 H         -1.5556024885        0.7977690818       -2.5298484976
 H         -2.8019922186        0.6417818943       -3.7587178837
 C         -3.3930999397       -0.0231275835       -1.8000402497
 H         -4.4196715053        0.3060660147       -1.6582511250
 H         -3.4086316172       -1.0057727393       -2.2796602194
 H         -4.9279361453        2.2083067994       -0.9525880305
 H         -4.5544391686        3.5189645742        0.1420804787
 H         -4.8310345106        1.1827424599        1.1573458234
 H         -3.4954160027        2.1825472279        1.7080794933
 O         -2.1948435595        0.3055090274        1.7681355037
 C         -1.2692419536       -0.7156854902        1.8804594251
 O         -0.7178277777       -0.7846373258        2.9979515622
 O         -1.4159368923       -1.9240821611       -1.5236091147
 C          0.0383140366       -2.5944853688        0.9231461284
 C          1.0601520706       -2.4081364837       -0.1719169106
 C          1.4219308229       -3.3848281357       -1.0884518265
 C          2.3655277813       -3.1063487717       -2.0628463914
 C          2.9757869131       -1.8673878196       -2.1318460071
 C          2.6207939218       -0.8825303128       -1.2159029892
 C          1.6663182139       -1.1605724341       -0.2539183506
 H          1.3831875170       -0.3947876246        0.4529678097
 N          3.1976413179        0.3955373453       -1.2570895641
 S          3.5211441271        1.2180754185        0.1641244562
 O          4.5437588627        2.1745091500       -0.2045777069
 O          3.8593220206        0.3109541891        1.2358674126
 C          2.0269269782        2.1100947820        0.5404614303
 C          1.5938182782        3.0628424727       -0.3610842896
 C          0.4550283442        3.7938208692       -0.0670138562
 C         -0.2313709962        3.5602077987        1.1160940658
 C          0.2147411474        2.6003058000        2.0103153244
 C          1.3576576327        1.8702735486        1.7236329313
 H          1.7270273414        1.1137413877        2.3995732460
 H         -0.3219553953        2.4003696050        2.9245059411
 H         -1.1191961976        4.1290834209        1.3436291490
 H          0.1024652268        4.5410589356       -0.7595177597
 H          2.1581876721        3.2195075807       -1.2652414502
 H          3.9320954791        0.5135144630       -1.9393246624
 H          3.7140014048       -1.6573155678       -2.8909775853
 H          2.6332550798       -3.8691895115       -2.7784167685
 H          0.9502384386       -4.3532151393       -1.0561104737
 H          0.5383932467       -2.3533195763        1.8769462430
 C         -0.4700977134       -4.0206980814        1.0584337522
 C         -1.8288100473       -4.3010316268        1.6269733372
 C         -1.5452557300       -4.5910973394        0.1852218970
 H         -1.4582687670       -5.6242965406       -0.1186593759
 H         -1.9721271445       -3.9479926951       -0.5667081374
 H         -1.9391127541       -5.1295465314        2.3106194936
 H         -2.4532731858       -3.4516739961        1.8644980886
 H          0.3227071529       -4.7002255644        1.3577950978
