  62
        -98.93417153
 C         -1.6796920266       -0.4834312385        0.1089080692
 C         -2.8659142813       -1.1193781219        0.5544944925
 C         -4.1079914048       -0.7823424996       -0.1597943651
 C         -4.0674588434        0.1139722062       -1.1598591092
 C         -5.1916603336        0.5736694578       -2.0541371128
 C         -6.5452302492        0.8713552192       -1.3939679432
 C         -6.4633727854        1.4217379581        0.0373378700
 H         -5.4355903004        1.7049900280        0.2712688545
 H         -7.0727082863        2.3249677397        0.1049737464
 C         -6.9733252993        0.4317652116        1.0875816460
 H         -7.8871814176       -0.0347190890        0.7132704504
 H         -7.2361170623        0.9847966817        1.9925919406
 C         -5.9854959290       -0.6604225134        1.4958762397
 H         -6.5093101762       -1.3589028729        2.1527437042
 H         -5.1701068761       -0.2237535425        2.0787100905
 C         -5.3567497008       -1.4520862232        0.3376921615
 H         -5.0441459614       -2.4245989452        0.7274830994
 H         -6.0730815446       -1.6130134588       -0.4643607998
 H         -7.0550187892        1.5941404008       -2.0332632390
 H         -7.1557987390       -0.0305765936       -1.3923437765
 H         -4.8146265590        1.4763109214       -2.5411355476
 H         -5.3325919998       -0.1783663315       -2.8360868206
 O         -2.9129482438        0.7371383273       -1.5273806149
 C         -1.6980010041        0.4722074056       -0.9067532054
 O         -0.7524598448        1.1503629410       -1.3495075434
 O         -2.8861396522       -1.9417454657        1.5079484895
 C         -0.3856210544       -0.8336784244        0.8210831812
 C          0.3940939346        0.4138278331        1.1480345403
 C         -0.1609654417        1.3370085775        2.0304761873
 C          0.5125058075        2.4991769430        2.3508879599
 C          1.7616109614        2.7559762717        1.8141600560
 C          2.3300387048        1.8366056371        0.9398425423
 C          1.6448882847        0.6745568521        0.6113453510
 H          2.0754073816       -0.0004163251       -0.1078480525
 N          3.6189235701        2.0497424520        0.4436090732
 S          4.2881550370        1.2336154748       -0.8413340717
 O          5.5709743874        1.8813228481       -1.0248620574
 O          3.4338050923        1.2040559901       -2.0044660107
 C          4.5476512489       -0.4177124602       -0.2252116845
 C          4.3526193585       -1.4841805448       -1.0801902430
 C          4.5632040267       -2.7709378333       -0.6104313569
 C          4.9680308682       -2.9677377730        0.7006961560
 C          5.1680011767       -1.8859548368        1.5446773416
 C          4.9590109260       -0.5969812967        1.0805411770
 H          5.1010863547        0.2642736692        1.7115322092
 H          5.4831788304       -2.0431838003        2.5636203547
 H          5.1271786284       -3.9701376870        1.0656891219
 H          4.4082651413       -3.6126669744       -1.2666613150
 H          4.0282154492       -1.2829412384       -2.0893593385
 H          4.0174708318        2.9623800558        0.5975834600
 H          2.2904292758        3.6630136285        2.0638489485
 H          0.0641085297        3.2130289597        3.0256138066
 H         -1.1378380257        1.1366431189        2.4496260202
 H         -0.7131440969       -1.2858649184        1.7725670948
 C          0.4486075378       -1.8873684304        0.1077132690
 C         -0.1998548688       -2.9546757386       -0.7203446518
 C          0.6284832907       -1.8949200867       -1.3794207874
 H          1.5947586372       -2.1696540658       -1.7758781332
 H          0.1327545551       -1.1238589001       -1.9490167007
 H          0.1962239444       -3.9572422003       -0.6657386186
 H         -1.2725332839       -2.9135951918       -0.8407758876
 H          1.3059953172       -2.1935270036        0.7002856739
