  62
        -98.93718264
 C         -2.2720059459       -1.1082271437        0.0422640586
 C         -2.1498692192        0.0517000646       -0.7613749593
 C         -2.7210211665        1.2860059863       -0.1979041252
 C         -3.2504516500        1.2710269505        1.0377557473
 C         -3.8901220572        2.4473591581        1.7152132124
 C         -5.3983910914        2.5005747113        1.4341792001
 C         -5.7558823645        2.3591739041       -0.0453322551
 H         -5.4845827688        1.3560521316       -0.3822355366
 H         -6.8416382199        2.4432764297       -0.1268048551
 C         -5.0918733742        3.3975379973       -0.9602489239
 H         -5.8412532274        3.7819656155       -1.6552583824
 H         -4.7371641049        4.2408648359       -0.3667614562
 C         -3.9389517536        2.8526874068       -1.8052115029
 H         -4.2643619812        1.9512686061       -2.3304971278
 H         -3.6896809834        3.6008501475       -2.5622944784
 C         -2.6478427716        2.5266989263       -1.0436379867
 H         -1.8639438116        2.3380081073       -1.7831131477
 H         -2.3478108011        3.3854268845       -0.4393469775
 H         -5.7866867855        3.4464127283        1.8161292091
 H         -5.8807701455        1.6883332840        1.9827671296
 H         -3.7315256676        2.3502195048        2.7906527264
 H         -3.4116487355        3.3620414978        1.3702573019
 O         -3.3019902553        0.1510458306        1.8033884947
 C         -2.8265497344       -1.0565304273        1.3246329980
 O         -2.9548621247       -2.0079114824        2.1214564630
 H          0.2750122628       -0.8310092991       -1.0151160304
 C          0.6078442014       -1.6497139595       -0.3933439207
 C         -0.3088876746       -2.6126486427        0.0072420189
 C          0.1350940669       -3.6576857061        0.8073569890
 C          1.4612218770       -3.7303346068        1.1997861533
 C          2.3690637543       -2.7634007500        0.8057566007
 C          1.9330411642       -1.7167060122        0.0048136076
 N          2.8497445910       -0.7068095770       -0.3890370280
 S          3.2434824679        0.3550186483        0.8703487921
 O          3.7805099699       -0.4150691822        1.9624245274
 O          2.1087831595        1.2014401414        1.1803292215
 C          4.5343283557        1.3167172714        0.1062524367
 C          5.8311263527        0.8422893440        0.1456392338
 C          6.8294603319        1.5700279542       -0.4819776388
 C          6.5155719547        2.7514504764       -1.1372028585
 C          5.2089375028        3.2147169800       -1.1682899021
 C          4.2057943455        2.4912071976       -0.5426642699
 H          3.1782472508        2.8189993294       -0.5333874147
 H          4.9671127220        4.1343116098       -1.6766137402
 H          7.2939489761        3.3165991596       -1.6250823844
 H          7.8469113770        1.2145400444       -0.4583104510
 H          6.0280435672       -0.0761538463        0.6730720085
 H          2.4499063633       -0.1442452185       -1.1315866579
 H          3.3969864713       -2.7939069860        1.1266497656
 H          1.7898196285       -4.5459004479        1.8259808060
 H         -0.5716940136       -4.4034610913        1.1413681456
 C         -1.7587611860       -2.4772030626       -0.3812544633
 H         -2.3316013306       -3.1980832159        0.2230134122
 C         -2.0293961785       -2.7923970898       -1.8463502953
 C         -0.9523257587       -2.9766191099       -2.8692218835
 C         -1.7233430204       -4.1618461738       -2.3772892537
 H         -2.4347829600       -4.6328655679       -3.0383282938
 H         -1.2151082780       -4.8452146775       -1.7135181747
 H         -1.1432945328       -2.6067309942       -3.8650397285
 H          0.0749544290       -2.8735750574       -2.5569445327
 H         -2.9465160588       -2.3303745868       -2.1966236471
 O         -1.5934619683        0.0806002136       -1.8905765318
