  62
        -98.93477417
 C          1.6630711215        0.4522284229        0.2146043798
 C          2.8450988472        1.0789984636        0.6786521725
 C          4.1083218677        0.7327627347       -0.0017977767
 C          4.0758464468       -0.1707293932       -0.9983933432
 C          5.2244647977       -0.7030396665       -1.8135045712
 C          6.0716470184       -1.7286965459       -1.0435658248
 C          6.3964666179       -1.3415591934        0.3967860215
 H          6.9042562371       -2.1907354819        0.8618245824
 H          5.4649772300       -1.1830286904        0.9432203253
 C          7.2940532212       -0.1165862490        0.5553107407
 H          8.2376769929       -0.2946380643        0.0347605226
 H          7.5169547606       -0.0145289950        1.6204623603
 C          6.7108598554        1.2102814305        0.0643597185
 H          6.7653501941        1.2866768450       -1.0183254200
 H          7.3419609866        2.0097946691        0.4634058289
 C          5.2909011764        1.4981929544        0.5416747186
 H          5.0685218845        2.5557810529        0.3545657697
 H          5.2483627308        1.3853079587        1.6309506566
 H          6.9975412529       -1.8957820784       -1.5965434052
 H          5.5187258583       -2.6710194006       -1.0183164253
 H          5.8395643076        0.1169881484       -2.1720028987
 H          4.7876364181       -1.1968803764       -2.6844917683
 O          2.9207550514       -0.7845692531       -1.3827417583
 C          1.6954323574       -0.5075394947       -0.7972506012
 O          0.7531145373       -1.1761398943       -1.2614544722
 O          2.8533504828        1.8986716362        1.6360387705
 C          0.3578350729        0.8186290273        0.8973601302
 C         -0.4435707646       -0.4194641598        1.2071144910
 C          0.0795230115       -1.3468126727        2.1045850485
 C         -0.6143044486       -2.5008827171        2.4104594019
 C         -1.8524575541       -2.7452754683        1.8434193128
 C         -2.3890003402       -1.8217110000        0.9535854720
 C         -1.6836130786       -0.6675745507        0.6402879413
 H         -2.0894530501        0.0108494593       -0.0899822085
 N         -3.6673050700       -2.0222984770        0.4256573482
 S         -4.2918785039       -1.2104164641       -0.8841303762
 O         -5.5752293463       -1.8473740744       -1.0988451689
 O         -3.4046808077       -1.1981918993       -2.0226787216
 C         -4.5531722497        0.4484139439       -0.2893020189
 C         -4.9994995062        0.6429184455        1.0027018470
 C         -5.2102718327        1.9377386939        1.4494774751
 C         -4.9773509173        3.0101493997        0.6020130174
 C         -4.5375828579        2.7981357944       -0.6954164503
 C         -4.3248171281        1.5054973130       -1.1476996340
 H         -3.9738864909        1.2924678406       -2.1455132716
 H         -4.3571412549        3.6325634824       -1.3544516765
 H         -5.1380391524        4.0171108012        0.9535450630
 H         -5.5528054660        2.1067607221        2.4576390858
 H         -5.1668918372       -0.2113302512        1.6369933152
 H         -4.0808316113       -2.9288349012        0.5762955537
 H         -2.3970244050       -3.6461554282        2.0813667288
 H         -0.1904770637       -3.2180300334        3.0974234286
 H          1.0480293778       -1.1562049509        2.5469639356
 H          0.6693476610        1.2679991192        1.8555042472
 C         -0.4477173522        1.8809022701        0.1639434168
 C          0.2319656367        2.9396956214       -0.6498341011
 C         -0.5923556977        1.8882481927       -1.3270323205
 H         -1.5457665436        2.1733522292       -1.7466199558
 H         -0.0919184111        1.1107378820       -1.8836155273
 H         -0.1540309162        3.9467081350       -0.6057901793
 H          1.3066844078        2.8865025529       -0.7444969514
 H         -1.3152156432        2.1974971271        0.7359188202
