  62
        -98.94093744
 C         -1.5483472163       -0.6869137479        0.4108928418
 C         -2.6389667124       -0.8991862127       -0.4689311553
 C         -3.5566320498        0.2401354600       -0.6267248631
 C         -3.2996653830        1.4073048271       -0.0113902945
 C         -4.1215211725        2.6637439957       -0.1104181494
 C         -5.3174889690        2.7049365051        0.8506634806
 C         -6.4787726735        1.7796963305        0.4849165481
 H         -7.3265321718        2.0672033616        1.1100665670
 H         -6.7667299697        1.9520910919       -0.5525836811
 C         -6.1911491469        0.2871956384        0.7001353012
 H         -5.3235707111        0.1742058506        1.3546237003
 H         -7.0381234430       -0.1770695407        1.2105377427
 C         -5.9480186078       -0.5031561617       -0.5857664993
 H         -6.8582612838       -0.5086122841       -1.1894457917
 H         -5.7185707964       -1.5368544100       -0.3144101080
 C         -4.7943508474        0.0291393449       -1.4457499987
 H         -4.5640364728       -0.7172077491       -2.2097920200
 H         -5.0890563605        0.9554880740       -1.9380451420
 H         -4.9655465054        2.4672431612        1.8573204974
 H         -5.6899535600        3.7318816740        0.8634719592
 H         -3.4543417200        3.4921873990        0.1368801192
 H         -4.4722683767        2.7930416587       -1.1346521602
 O         -2.2099718278        1.5881214068        0.7825614906
 C         -1.3345969819        0.5453912797        1.0335853029
 O         -0.4084925578        0.8360163286        1.8181400682
 H          2.1209914272       -1.3783648990        1.2343432508
 C          1.9150650404       -1.4659395421        0.1782240932
 C          0.6174133154       -1.6709982704       -0.2647944335
 C          0.3814114243       -1.7649111033       -1.6338961663
 C          1.4275697782       -1.6647025422       -2.5315602287
 C          2.7205179227       -1.4467374937       -2.0863958722
 C          2.9645081289       -1.3408753857       -0.7229922820
 N          4.2658594235       -1.1157937694       -0.2385222523
 S          4.5156128482        0.1344823529        0.8502390081
 O          5.9496952690        0.3253923513        0.8548772592
 O          3.9152803799       -0.1906155812        2.1172675113
 C          3.7235977278        1.5413047610        0.0928779827
 C          2.3972812538        1.8189504818        0.3532081958
 C          1.7944009312        2.8725795278       -0.3173153436
 C          2.5186348953        3.6256785073       -1.2273906674
 C          3.8527195061        3.3358306181       -1.4734752549
 C          4.4602081829        2.2813066897       -0.8131377606
 H          5.4963919688        2.0267216636       -0.9677438298
 H          4.4165451921        3.9260772493       -2.1777502834
 H          2.0409418835        4.4433721971       -1.7438956744
 H          0.7562488328        3.0875447219       -0.1156087910
 H          1.8412090055        1.2319167698        1.0675202424
 H          4.9710613061       -1.0875211107       -0.9618309125
 H          3.5353873707       -1.3593753740       -2.7888859048
 H          1.2342161772       -1.7467271127       -3.5903729324
 H         -0.6291952058       -1.9205101866       -1.9802024715
 C         -0.5134551008       -1.7550105987        0.7275415304
 H         -0.1045758885       -1.4794334341        1.7132730520
 C         -1.1070573548       -3.1507223413        0.8610925562
 C         -0.7703594569       -4.2899539390       -0.0490806372
 C         -0.2416652164       -4.2741304573        1.3514627267
 H         -0.6484362333       -4.9671912566        2.0723694757
 H          0.8092224646       -4.0631158058        1.4872634887
 H         -1.5633345051       -4.9785723363       -0.2978968629
 H         -0.0757376974       -4.1166476840       -0.8554464215
 H         -2.1242219750       -3.1256081133        1.2376965592
 O         -2.8525514505       -1.9654262174       -1.0984236142
