  62
        -98.94077364
 C          1.6923608605        0.5679229098        0.1759032015
 C          2.8771676302        1.1961220599        0.6396158421
 C          4.1051297105        0.8935376603       -0.1034040676
 C          4.0577113110        0.0544690306       -1.1535499279
 C          5.2147631613       -0.3249304190       -2.0376490977
 C          6.0754677313       -1.4692036890       -1.4851993278
 C          6.9583376509       -1.1006166392       -0.2922535074
 H          7.6600334810       -1.9243415992       -0.1468031174
 H          7.5438813008       -0.2135306891       -0.5357306570
 C          6.1894348604       -0.8699666597        1.0162189924
 H          5.1886192105       -1.2997107199        0.9301930920
 H          6.6930805803       -1.3940966599        1.8316100024
 C          6.0652751701        0.5968038601        1.4288385828
 H          5.4737846298        0.6457889597        2.3465538227
 H          7.0564461200        1.0013458702        1.6452028233
 C          5.3901568403        1.4932769203        0.3824935529
 H          5.1538275600        2.4507542601        0.8530448631
 H          6.0666708305        1.6711300307       -0.4532555568
 H          5.4189150913       -2.2984463992       -1.2113494282
 H          6.7216879116       -1.8115901186       -2.2968532777
 H          4.7853936616       -0.6459314587       -2.9893083679
 H          5.8410763112        0.5496973712       -2.2162733172
 O          2.9080891912       -0.5503517295       -1.5520794885
 C          1.7042596409       -0.3365155299       -0.8871451288
 O          0.7578532012       -1.0047145499       -1.3427322792
 O          2.9056239998        1.9740704396        1.6295084023
 C          0.4044340202        0.8661660594        0.9224171112
 C         -0.3511335897       -0.4062717008        1.2082529506
 C          0.2356582702       -1.3578766810        2.0386129905
 C         -0.4151441697       -2.5414843912        2.3252246599
 C         -1.6711580495       -2.7943085712        1.8027930495
 C         -2.2703165694       -1.8482830110        0.9791731996
 C         -1.6097724795       -0.6623104409        0.6875418902
 H         -2.0680105294        0.0384938093        0.0111290202
 N         -3.5664768692       -2.0602667311        0.4982450091
 S         -4.2072964389       -1.2972755008       -0.8364720308
 O         -5.4703362288       -1.9767210709       -1.0426934314
 O         -3.3124508386       -1.2865539003       -1.9687868206
 C         -4.5275752194        0.3662626790       -0.2859990104
 C         -4.9773590098        0.5803034885        1.0018236495
 C         -5.2421605801        1.8778114184        1.4103775498
 C         -5.0600666800        2.9329979487        0.5293932002
 C         -4.6161495096        2.7008658591       -0.7631273097
 C         -4.3481676192        1.4054967293       -1.1772250500
 H         -3.9906092589        1.1778404497       -2.1694530600
 H         -4.4755570395        3.5218869894       -1.4483090194
 H         -5.2639473903        3.9422250285        0.8507369405
 H         -5.5874633904        2.0625275980        2.4148464798
 H         -5.1047303798       -0.2611437917        1.6619875892
 H         -3.9485962091       -2.9817820812        0.6448965887
 H         -2.1824275894       -3.7183290214        2.0257343390
 H          0.0567891502       -3.2755465313        2.9611042598
 H          1.2182982701       -1.1605917210        2.4456080908
 H          0.7415539198        1.2812182691        1.8874537715
 C         -0.4569954598        1.9377279795        0.2708001313
 C          0.1599288803        3.0423971798       -0.5319807282
 C         -0.6762767793        2.0007451499       -1.2097387887
 H         -1.6554645993        2.2816275098       -1.5685026390
 H         -0.1893429790        1.2569552501       -1.8215113188
 H         -0.2436631599        4.0380677697       -0.4281680680
 H          1.2294442604        3.0167422300       -0.6816560679
 H         -1.3013196100        2.2127775591        0.8962815911
