  62
        -98.94752776
 C          1.3334827314        1.6288581628       -0.5016897330
 C          1.1943149907        0.3200716703       -1.0279863259
 C          2.3834338405       -0.5418889816       -0.9286757024
 C          3.5118591958       -0.0625103627       -0.3776392668
 C          4.7817499355       -0.8404634824       -0.1898420875
 C          4.8279430071       -1.5161736850        1.1868904624
 C          3.5633268457       -2.3030738539        1.5316311902
 H          3.7270128888       -2.7745889869        2.5034728466
 H          2.7251440857       -1.6116633732        1.6518846280
 C          3.1814188620       -3.3746926317        0.5015614810
 H          2.9062043037       -4.2872927441        1.0348570110
 H          4.0413098489       -3.6114759635       -0.1269026901
 C          1.9888162526       -2.9993304475       -0.3805305559
 H          1.1725729994       -2.6442190657        0.2552537173
 H          1.6475795294       -3.9060932819       -0.8893414224
 C          2.2618606814       -1.9425019630       -1.4592956541
 H          3.1518238040       -2.2193471122       -2.0290299679
 H          1.4051960102       -1.9302903145       -2.1395207489
 H          5.6914484593       -2.1836033912        1.2151365495
 H          4.9687657235       -0.7451363667        1.9479210202
 H          4.8621626945       -1.5885891090       -0.9760214139
 H          5.6216139770       -0.1481327705       -0.2719638764
 O          3.6138024313        1.2009374624        0.1079820868
 C          2.5307714614        2.0611423206        0.0767596138
 O          2.7593538613        3.1823158404        0.5763416487
 H         -1.2443266209        0.4434990257        0.0310586779
 C         -1.3811079037        1.1931161020        0.7920735824
 C         -0.7079739673        2.4014784211        0.6879136915
 C         -0.8854252734        3.3540832698        1.6843182785
 C         -1.7107600197        3.0934887583        2.7642071576
 C         -2.3595773825        1.8769550522        2.8782483072
 C         -2.1868249409        0.9181854676        1.8860592707
 N         -2.8364903481       -0.3219172854        1.9519099068
 S         -2.0901595776       -1.6885032408        1.3321677051
 O         -2.7865143898       -2.7905027502        1.9688280925
 O         -0.6618197850       -1.6587823990        1.5483262467
 C         -2.4969519707       -1.7052521477       -0.4008687412
 C         -3.5533379960       -0.9525352428       -0.8717163412
 C         -3.8707565417       -1.0166964171       -2.2189491934
 C         -3.1362978996       -1.8311120031       -3.0662635160
 C         -2.0847530647       -2.5874371301       -2.5748688250
 C         -1.7614606304       -2.5269691885       -1.2293680269
 H         -0.9425562845       -3.0901170596       -0.8123905187
 H         -1.5096547451       -3.2177027308       -3.2344876227
 H         -3.3810145171       -1.8732473291       -4.1161518227
 H         -4.6864072267       -0.4254374616       -2.6037699777
 H         -4.0986268414       -0.3184783343       -0.1923872561
 H         -3.3300270108       -0.5136570752        2.8110003938
 H         -2.9899348963        1.6668182632        3.7289881693
 H         -1.8403516242        3.8403194462        3.5329333892
 H         -0.3571276531        4.2940014082        1.6176612939
 C          0.2082144169        2.6542000759       -0.4851308241
 H          0.6948575108        3.6265041665       -0.3281761910
 C         -0.5778423006        2.7136718669       -1.7806201391
 C         -1.3450693206        3.9585769060       -2.1056037494
 C         -0.1097889077        3.6146238644       -2.8816632121
 H         -0.2147634190        3.2770367797       -3.9016028300
 H          0.7830408446        4.1972832246       -2.7052551156
 H         -1.2898725565        4.7782295407       -1.4051623396
 H         -2.3023547861        3.8596798909       -2.5933384691
 H         -1.0102512155        1.7637708761       -2.0648602275
 O          0.1500412803       -0.1270188262       -1.5715953880
