  62
        -98.94041861
 C          2.3565207500       -0.0729432634       -0.2173657543
 C          3.4599292459       -0.3242384224       -1.0671118747
 C          4.7300526169        0.2981624735       -0.6722880676
 C          4.7703462661        1.0627568254        0.4345712569
 C          6.0082176829        1.7122281139        0.9808076395
 C          6.7177575146        0.7970632785        1.9886389238
 C          6.9285618887       -0.6308979352        1.4852155715
 H          7.4631739728       -1.1755312111        2.2664817988
 H          5.9559531765       -1.1138298495        1.3655602041
 C          7.7088307913       -0.7308133574        0.1670283523
 H          8.2461062864        0.2001593552       -0.0171591519
 H          8.4547497379       -1.5228318542        0.2607282817
 C          6.8504662042       -1.0698051293       -1.0529548577
 H          6.2393969071       -1.9501337801       -0.8380817673
 H          7.5189574632       -1.3292718327       -1.8781811640
 C          5.9255045149        0.0488926398       -1.5485473437
 H          6.5000173230        0.9669134876       -1.6874927931
 H          5.5252544607       -0.2570456198       -2.5196548039
 H          7.6821501140        1.2424870991        2.2394075390
 H          6.1159412003        0.7532621795        2.8992594617
 H          6.6788453421        1.9526759266        0.1581642379
 H          5.7179692805        2.6359702687        1.4839523307
 O          3.6847437418        1.2958790154        1.2162490421
 C          2.4528758503        0.7325229576        0.9171751819
 O          1.5461176638        1.0229283219        1.7201672011
 H         -1.5915470097       -0.6365336905        0.3566073533
 C         -1.3212308579        0.2266979720       -0.2281068067
 C         -0.0430127739        0.3601112877       -0.7459899906
 C          0.2534915919        1.4934046728       -1.4997302870
 C         -0.7000972293        2.4687754774       -1.7152914645
 C         -1.9786338970        2.3263707950       -1.2049419558
 C         -2.2875048963        1.1971368618       -0.4574347814
 N         -3.5713903978        1.0228853406        0.0838946750
 S         -4.2061923659       -0.5416969873        0.1354803750
 O         -3.7620282528       -1.1889753652        1.3442136536
 O         -3.9218453558       -1.2323699704       -1.1018859537
 C         -5.9492986294       -0.1810382930        0.2526327531
 C         -6.4752043852        0.1709062065        1.4816020338
 C         -7.8234996636        0.4789499990        1.5693029527
 C         -8.6189271249        0.4311083874        0.4338700535
 C         -8.0773909640        0.0747015267       -0.7919796055
 C         -6.7293485825       -0.2334196778       -0.8871391645
 H         -6.2662226040       -0.5238328459       -1.8164445518
 H         -8.6987879071        0.0350296886       -1.6720833711
 H         -9.6682180023        0.6701161737        0.5056220256
 H         -8.2487600466        0.7538146862        2.5210502818
 H         -5.8209541650        0.1855528941        2.3377624393
 H         -4.2428260639        1.6891958809       -0.2726551778
 H         -2.7264628528        3.0850694708       -1.3789783707
 H         -0.4500670915        3.3441255169       -2.2959659513
 H          1.2475865473        1.5996461602       -1.9129000785
 C          1.0164497864       -0.6972140358       -0.5547765153
 H          1.1637691057       -1.2029830600       -1.5219759276
 C          0.6450429958       -1.7374947891        0.4814120981
 C         -0.2102940964       -2.9093305600        0.1061927926
 C          1.2472900202       -3.1064873923        0.3922064209
 H          1.5317014001       -3.6061237549        1.3060715439
 H          1.9085239875       -3.3028016279       -0.4392893694
 H         -0.9350532363       -3.2669160985        0.8229172551
 H         -0.5448728717       -2.9763588590       -0.9184841509
 H          0.5158256025       -1.3102038123        1.4703480099
 O          3.3836320897       -1.0298427901       -2.1094648727
