  62
        -98.94054880
 C         -2.6377790112       -1.3186972392       -0.1542825213
 C         -2.3695438008       -0.1478779386       -0.9037324903
 C         -3.5071396104        0.7623198520       -1.0874111894
 C         -4.7137993005        0.4376528320       -0.5885553096
 C         -5.9749569002        1.2475399526       -0.7217957387
 C         -6.1209062497        2.3549973417        0.3306829223
 C         -5.1897866793        3.5539372215        0.1463965733
 H         -5.2799887092        3.9300025025       -0.8731016163
 H         -5.5429829489        4.3403370310        0.8163168041
 C         -3.7152088794        3.2642141907        0.4610778030
 H         -3.3092038890        4.0660588800        1.0820599337
 H         -3.6391433297        2.3427794501        1.0433904121
 C         -2.8148265395        3.1459522115       -0.7689433972
 H         -2.7723981192        4.1076999019       -1.2852867563
 H         -1.8037781896        2.9012798908       -0.4307480075
 C         -3.2541804300        2.0711533526       -1.7722490582
 H         -4.1426234399        2.3998746934       -2.3109925878
 H         -2.4431972401        1.9206240829       -2.4889190184
 H         -5.9622995898        1.9201179007        1.3202040319
 H         -7.1520821196        2.7127752321        0.2861149627
 H         -6.0264042801        1.6834944436       -1.7197575183
 H         -6.8061061705        0.5491281328       -0.6031207393
 O         -4.9358959609       -0.7137500885        0.0999051494
 C         -3.9028627912       -1.5986739192        0.3626484385
 O         -4.2334911216       -2.5855440597        1.0508282376
 H          1.1280023486       -1.8588830103       -0.5186852321
 C          0.8537781688       -1.4355057910        0.4346128883
 C         -0.4370458012       -1.5864901610        0.9111253883
 C         -0.7646952609       -1.0168558420        2.1393822588
 C          0.1753826794       -0.3112003030        2.8642114694
 C          1.4643418395       -0.1579909331        2.3824469095
 C          1.8009726992       -0.7202248821        1.1597247389
 N          3.1123841692       -0.5919058221        0.6655850090
 S          3.8895078498        0.8960115774        0.8535590903
 O          4.3850103199        0.9834030760        2.2050880603
 O          3.0277258501        1.9758566281        0.4275654513
 C          5.2542593996        0.6986900879       -0.2752292900
 C          6.4208682794        0.1147282671        0.1803254694
 C          7.4706095693       -0.0643249525       -0.7065357508
 C          7.3365880794        0.3398761388       -2.0264713305
 C          6.1597152395        0.9254617896       -2.4688414098
 C          5.1054997897        1.1065785792       -1.5874293496
 H          4.1761444998        1.5654881598       -1.8862267791
 H          6.0590565396        1.2413328906       -3.4947922695
 H          8.1549704193        0.2006358891       -2.7150641306
 H          8.3879051291       -0.5170284232       -0.3663753313
 H          6.4812644894       -0.1753664039        1.2161563891
 H          3.1847678790       -0.9107757612       -0.2913529713
 H          2.2039446197        0.4019486662        2.9315215599
 H         -0.0952417203        0.1294871962        3.8124318298
 H         -1.7748304109       -1.1277613619        2.5115530688
 C         -1.5207762715       -2.3044230199        0.1433686077
 H         -1.9562383018       -3.0687860203        0.8022142470
 C         -1.0453195818       -2.9706857689       -1.1299372930
 C         -0.3438683923       -4.2933142092       -1.0653625042
 C         -1.7406555423       -4.2107721882       -1.6018218740
 H         -1.8961477625       -4.3419351871       -2.6621693942
 H         -2.5490759424       -4.5886965884       -0.9929716843
 H          0.4597230375       -4.4871549089       -1.7596067344
 H         -0.2007033524       -4.7339228301       -0.0904177146
 H         -0.7327092516       -2.2585999983       -1.8847895023
 O         -1.2453315907        0.1240838515       -1.4009266901
