  62
        -98.93633385
 C          1.7590061103        0.0446278705       -0.4272947200
 C          2.7665163105        1.0124725702       -0.2177322196
 C          4.1345359204        0.5082273198        0.0020668202
 C          4.3532078001       -0.8186583503       -0.0352670903
 C          5.6462121599       -1.5683765107        0.1654583094
 C          6.8935014901       -0.9953380707       -0.5250429803
 C          7.9023290102       -0.3839694113        0.4491070700
 H          7.9504589100       -1.0139666417        1.3397997497
 H          8.8908189602       -0.4013288014       -0.0153673700
 C          7.6134318605        1.0573359986        0.8651836705
 H          7.8124508107        1.7234389189        0.0228334508
 H          8.3167106506        1.3192194881        1.6592569607
 C          6.1910905806        1.3210862187        1.3629750206
 H          6.2164263608        2.2176854985        1.9859667410
 H          5.8508209004        0.5029435485        1.9968323703
 C          5.1799059207        1.5653385894        0.2327634907
 H          4.6092716509        2.4758708395        0.4406429210
 H          5.7080584507        1.7508683497       -0.7068586592
 H          7.3878016699       -1.8143795506       -1.0501218006
 H          6.5989396203       -0.2636124503       -1.2756052700
 H          5.8277145699       -1.6626810211        1.2391405894
 H          5.4475862397       -2.5767688605       -0.2047418910
 O          3.3485375899       -1.7170331300       -0.2495591507
 C          2.0358698200       -1.3212451296       -0.4419777606
 O          1.2341695598       -2.2588097093       -0.6131017610
 O          2.5328387608        2.2516260802       -0.2032697991
 C          0.3302648304        0.5058777609       -0.6503132899
 C         -0.5806662197       -0.1025133093        0.3862067099
 C         -0.2087161998       -0.0335219899        1.7274378099
 C         -0.9949560999       -0.5992004801        2.7107504496
 C         -2.1811062201       -1.2324268597        2.3813274594
 C         -2.5696974301       -1.2942560891        1.0499682993
 C         -1.7756672599       -0.7244791289        0.0620421596
 H         -2.0994219799       -0.8015824784       -0.9620767305
 N         -3.7695190102       -1.9265102486        0.6847752890
 S         -4.7830673400       -1.1707978179       -0.4087351607
 O         -6.0873057101       -1.7417405977       -0.1504518309
 O         -4.2830126500       -1.3217969375       -1.7509822407
 C         -4.7538863296        0.5454958819        0.0765610700
 C         -4.1722637993        1.4851905120       -0.7483091196
 C         -4.1114583390        2.8032129019       -0.3238792391
 C         -4.6280539490        3.1553187115        0.9130190810
 C         -5.2156512292        2.1997397713        1.7283445606
 C         -5.2789656795        0.8811969315        1.3093721001
 H         -5.7379523497        0.1143737114        1.9119898198
 H         -5.6204566292        2.4783828810        2.6878969607
 H         -4.5736605487        4.1809897514        1.2422340615
 H         -3.6584677488        3.5487080020       -0.9580663588
 H         -3.7806381194        1.1693298523       -1.7011464697
 H         -4.2904727403       -2.3121123888        1.4587184889
 H         -2.7938863902       -1.6838921798        3.1466242692
 H         -0.6855534499       -0.5460885706        3.7436155697
 H          0.7181831203        0.4602583598        1.9854063901
 H          0.3492824807        1.5952910309       -0.4973110694
 C         -0.0921484196        0.2226420516       -2.0762117100
 C         -1.0575996994        1.1303029321       -2.7751631897
 C          0.3883952806        1.1295492919       -3.1681101096
 H          0.6696271806        0.6926941122       -4.1146030198
 H          0.9972497808        1.9733740517       -2.8778646493
 H         -1.7767668295        0.6926672625       -3.4520456199
 H         -1.4242768592        1.9827713820       -2.2238380093
 H         -0.1357661599       -0.8386328283       -2.2963532204
