  62
        -98.93984814
 C         -1.8312242633       -1.0312789168        0.4817677628
 C         -2.3812178806        0.0736185287        1.1821211652
 C         -3.8338067919        0.2499228258        1.0854614253
 C         -4.5649354938       -0.6326262061        0.3813972369
 C         -6.0587827300       -0.6056913099        0.2038131333
 C         -6.5354013570        0.3195978320       -0.9241426519
 C         -6.4300292047        1.8160060028       -0.6270742315
 H         -6.9957223526        2.3370168172       -1.4020644210
 H         -6.9116828394        2.0310843656        0.3273052239
 C         -4.9946313113        2.3604994630       -0.6152754712
 H         -4.3299453192        1.6506334650       -1.1132580059
 H         -4.9528169115        3.2909108151       -1.1861487720
 C         -4.4407088586        2.6602710406        0.7778694070
 H         -5.0162101674        3.4680272067        1.2357497244
 H         -3.4077985417        3.0022247663        0.6699473202
 C         -4.4434111497        1.4575652667        1.7304552262
 H         -3.8364509681        1.7103442056        2.6034600364
 H         -5.4592665139        1.2413398051        2.0610090940
 H         -5.9691336623        0.0875360460       -1.8290014804
 H         -7.5841198119        0.0830804866       -1.1180841186
 H         -6.3616592281       -1.6268010854       -0.0375357836
 H         -6.5340165820       -0.3141375773        1.1408432045
 O         -4.0072948762       -1.6950171952       -0.2529513572
 C         -2.6327249951       -1.9111537092       -0.2476092846
 O         -2.2858621787       -2.9045625904       -0.9110798509
 O         -1.6867120266        0.8714733876        1.8683517588
 C         -0.3239838607       -1.2034701540        0.5612270534
 C          0.3443142853       -0.4964080035       -0.5901538149
 C          0.0000341845       -0.7894097313       -1.9073639103
 C          0.6064948355       -0.1210737403       -2.9541750068
 C          1.5686156641        0.8439590543       -2.7113601506
 C          1.9133476716        1.1502053019       -1.4001320871
 C          1.3037655358        0.4761788763       -0.3488673577
 H          1.5586265360        0.7448810297        0.6652734087
 N          2.8696481951        2.1361419135       -1.1327975178
 S          3.8427123978        2.0720347691        0.2164019896
 O          3.1077294892        2.4562894177        1.3949427536
 O          4.9723846648        2.9113095080       -0.1222758931
 C          4.3813152281        0.3765195892        0.3610174173
 C          4.3717257011       -0.2250904471        1.6029630758
 C          4.8279371964       -1.5286935545        1.7226590612
 C          5.2781229694       -2.2077727348        0.6012150055
 C          5.2794750029       -1.5907072792       -0.6402072471
 C          4.8325649919       -0.2851248734       -0.7641502804
 H          4.8321238883        0.2193694867       -1.7163546384
 H          5.6266697892       -2.1225298762       -1.5112078258
 H          5.6256271449       -3.2241206715        0.6955306840
 H          4.8236534542       -2.0095372657        2.6876930376
 H          3.9998849430        0.3343405142        2.4468203803
 H          3.3387884175        2.5227550939       -1.9375727414
 H          2.0393766139        1.3677078701       -3.5292228610
 H          0.3301657525       -0.3558235482       -3.9710227621
 H         -0.7486659977       -1.5437227471       -2.0960021183
 H         -0.0330813627       -0.6733437777        1.4823412716
 C          0.1110087464       -2.6549312856        0.7125465095
 C          0.9354911162       -3.3864068181       -0.3005165534
 C          1.5495986197       -2.9689324756        0.9992686063
 H          1.7784894107       -3.7249072877        1.7346215037
 H          2.2459716298       -2.1436775951        0.9798340738
 H          0.7122909923       -4.4299792655       -0.4607345200
 H          1.2328892227       -2.8628935646       -1.1948308595
 H         -0.6301712650       -3.2458102401        1.2405016818
