  62
        -98.93407365
 C         -2.3109596975       -0.4997499330        0.3857554462
 C         -3.4823797759       -0.5042456385        1.1843905581
 C         -4.5097104061        0.5020658909        0.8668175123
 C         -4.2688536402        1.3889821770       -0.1136688606
 C         -5.1941501212        2.4534916774       -0.6346392899
 C         -5.9970583527        1.9316066208       -1.8384816101
 C         -7.2966071930        1.2099634026       -1.4834459020
 H         -8.0242774002        1.9390661444       -1.1209533899
 H         -7.6935690568        0.7827877570       -2.4072775242
 C         -7.1639181626        0.0939919849       -0.4437577803
 H         -6.2750122279       -0.5029963068       -0.6562405317
 H         -8.0275090386       -0.5656987833       -0.5487546000
 C         -7.1107390360        0.6163835961        0.9996970723
 H         -7.4047792426        1.6657596953        1.0092959964
 H         -7.8474063124        0.0831411736        1.6041699531
 C         -5.7569491589        0.4530767814        1.7066679902
 H         -5.6743612656        1.2059574874        2.4976639935
 H         -5.7198629494       -0.5224834522        2.2016560906
 H         -5.3480492907        1.2622094516       -2.4092322139
 H         -6.2453587796        2.7748802776       -2.4861087378
 H         -5.8517714877        2.8122696678        0.1515034254
 H         -4.5617156952        3.2782291276       -0.9695332370
 O         -3.1094546741        1.3927085864       -0.8241983836
 C         -2.1051589456        0.4598908385       -0.6067850710
 O         -1.1192293056        0.6064416777       -1.3515276600
 H          0.8418383542       -1.4826691562       -1.0735701897
 C          1.0615129309       -0.9686268553       -0.1503948268
 C          0.0989022220       -0.9030009221        0.8443310986
 C          0.3970046901       -0.2109059789        2.0142610203
 C          1.6260463874        0.3987833509        2.1812983354
 C          2.5815162499        0.3368626406        1.1822630472
 C          2.2919101253       -0.3451591503        0.0086843587
 N          3.2529417192       -0.3910238474       -1.0169218371
 S          4.7853327912       -0.9573253263       -0.6369627985
 O          5.3241063622       -1.4686080566       -1.8786720347
 O          4.7440681270       -1.8818845653        0.4730245828
 C          5.6859223821        0.5074674656       -0.1752317248
 C          5.7890337804        1.5270560087       -1.1010751185
 C          6.4900300263        2.6724837131       -0.7595104384
 C          7.0754444326        2.7770865212        0.4936126851
 C          6.9665575711        1.7427327922        1.4103787432
 C          6.2656863544        0.5945935373        1.0752073868
 H          6.1510923846       -0.2332408544        1.7567511883
 H          7.4232772435        1.8257313848        2.3835188671
 H          7.6203261092        3.6699828204        0.7567289786
 H          6.5772326199        3.4787291873       -1.4699993872
 H          5.3238867666        1.4043991798       -2.0650305037
 H          2.9125609146       -0.8087251551       -1.8706679626
 H          3.5400044436        0.8154122986        1.3011769855
 H          1.8424105199        0.9301105461        3.0956801163
 H         -0.3519352016       -0.1547431286        2.7924492788
 C         -1.2552077795       -1.5466943924        0.6953830581
 H         -1.5497554558       -1.9438718396        1.6805726188
 C         -1.2439774097       -2.7325563527       -0.2584669384
 C         -2.5280067485       -3.2907564881       -0.7929925081
 C         -1.5620749558       -2.6160856360       -1.7178709283
 H         -1.0044566771       -3.2300228193       -2.4108079354
 H         -1.8116419559       -1.6410154516       -2.1057777182
 H         -2.6399304039       -4.3626951007       -0.8542167396
 H         -3.4389373886       -2.7692735007       -0.5376377695
 H         -0.4795939825       -3.4553114283        0.0133306918
 O         -3.6670501797       -1.3230032574        2.1248181583
