  62
        -98.94393732
 C          1.8271819546        1.1309221708        0.2310060297
 C          2.1615903701        0.1105516438       -0.6913088408
 C          3.5907665389       -0.0128037884       -1.0158132268
 C          4.4710233595        0.8380410941       -0.4573736084
 C          5.9573223308        0.7907653981       -0.6604069851
 C          6.6364287040       -0.0798095989        0.4061711354
 C          5.9820046395       -1.4484166358        0.5948364648
 H          6.5619113968       -1.9852906566        1.3486793419
 H          4.9767981535       -1.3112432134        1.0000354706
 C          5.8988356590       -2.2940491091       -0.6835691757
 H          6.5974280165       -1.9104542509       -1.4280409975
 H          6.2043722081       -3.3157642109       -0.4483653175
 C          4.5004115922       -2.3786466947       -1.2985300853
 H          3.7780983530       -2.6723524012       -0.5322397519
 H          4.5091008114       -3.1662867576       -2.0568770488
 C          3.9896764543       -1.0995357688       -1.9739273191
 H          4.7344798648       -0.7353781744       -2.6846629044
 H          3.0820196068       -1.3571073866       -2.5281283347
 H          7.6839457035       -0.2107462133        0.1289975555
 H          6.6007927052        0.4509180293        1.3603256243
 H          6.1705251668        0.4000871373       -1.6534186498
 H          6.3465165438        1.8077022079       -0.5881720144
 O          4.1071186942        1.8206950035        0.4056790601
 C          2.7836681189        1.9837254798        0.7814811681
 O          2.5896514858        2.9050905003        1.5998918678
 H         -2.0322810828        0.1189774417        0.0668525187
 C         -1.4449989523       -0.4246886941        0.7874440915
 C         -0.1997706163        0.0460042977        1.1744499010
 C          0.5278558361       -0.6842735283        2.1109302507
 C          0.0353696972       -1.8693933625        2.6202576377
 C         -1.1961110887       -2.3498481350        2.2110415397
 C         -1.9398921590       -1.6204480024        1.2915484420
 N         -3.2134704404       -2.0582505660        0.9093405547
 S         -3.8775126917       -1.7120605958       -0.5824650164
 O         -4.9874655346       -2.6364161901       -0.6920824836
 O         -2.9080615224       -1.7643852322       -1.6504437966
 C         -4.5264094429       -0.0621295075       -0.4135858820
 C         -5.0972893658        0.3204728073        0.7841158006
 C         -5.6407464264        1.5907330016        0.8903988228
 C         -5.6143601039        2.4494224175       -0.1978945290
 C         -5.0430417769        2.0482276936       -1.3955803224
 C         -4.4924450769        0.7806912895       -1.5066795974
 H         -4.0257487023        0.4324700017       -2.4148098789
 H         -5.0233997072        2.7163523697       -2.2422220684
 H         -6.0388381763        3.4372509513       -0.1131544139
 H         -6.0840333035        1.9069871441        1.8208295349
 H         -5.1019869046       -0.3714607848        1.6094296451
 H         -3.4760306495       -2.9740285375        1.2416029509
 H         -1.5782860412       -3.2813757114        2.5998168526
 H          0.6165740271       -2.4292743186        3.3377097257
 H          1.4939010797       -0.3123628432        2.4255741679
 C          0.3804025642        1.3336586615        0.6432436242
 H          0.3999309389        2.0646879190        1.4652648228
 C         -0.4109823416        1.9216391143       -0.5068422024
 C         -1.5680485868        2.8340910862       -0.2344394118
 C         -0.2907275568        3.3882355450       -0.7882913088
 H         -0.2706590532        3.7154166044       -1.8169690268
 H          0.3472594885        3.9647140062       -0.1341178274
 H         -1.8051946153        3.0437083965        0.7975073863
 H         -2.4298522107        2.7819150499       -0.8823192718
 H         -0.4730614589        1.2502581860       -1.3567437184
 O          1.3144691268       -0.6596191831       -1.2152329544
