  62
        -98.93789388
 C         -2.0822096069       -0.9559522235       -0.0178411700
 C         -2.5301913851        0.3576204846       -0.2814085653
 C         -3.8666745129        0.7198136037        0.2348184345
 C         -4.5667171886       -0.1987350953        0.9263160203
 C         -5.9479527185       -0.0727815736        1.5123445323
 C         -7.0541513854       -0.1676232909        0.4492481143
 C         -6.7909740725        0.6310645386       -0.8245639440
 H         -5.8516499881        0.2974236453       -1.2691693378
 H         -7.5877978373        0.3952216596       -1.5349297517
 C         -6.7579230939        2.1471418280       -0.6467372781
 H         -7.7130801517        2.4806505736       -0.2349304960
 H         -6.6537214863        2.5881915948       -1.6414423522
 C         -5.6319257444        2.6934401202        0.2338364387
 H         -5.8541691051        2.5527662259        1.2882276684
 H         -5.5854188013        3.7740024643        0.0691083852
 C         -4.2459488300        2.1444981408       -0.0902964408
 H         -4.0517180416        2.2717870431       -1.1615061887
 H         -3.4966705696        2.7687613485        0.4120247514
 H         -7.9935204482        0.1583853053        0.8989186287
 H         -7.1615941063       -1.2177471266        0.1668983362
 H         -6.0310824101        0.8509220487        2.0772398755
 H         -6.0674797574       -0.9024491708        2.2126747758
 O         -4.0878795226       -1.4543856785        1.1613148579
 C         -2.8505567323       -1.8645904245        0.7085943766
 O         -2.5473310728       -3.0361372002        1.0129558683
 O         -1.8543995015        1.2018218104       -0.9271467318
 C         -0.7191705473       -1.4130371314       -0.5073432191
 C          0.3495778050       -0.5323809376        0.0924291796
 C          0.4304810977       -0.4377831681        1.4796952765
 C          1.3799331205        0.3652499645        2.0809949850
 C          2.2733481054        1.0915686956        1.3125932077
 C          2.2086882314        0.9955410553       -0.0702888657
 C          1.2590472365        0.1787751457       -0.6729843816
 H          1.2209915067        0.1216568421       -1.7492276828
 N          3.1191829896        1.7202358282       -0.8555255242
 S          4.7287690121        1.7258973867       -0.4053000405
 O          4.9367041675        2.6709057235        0.6633560409
 O          5.4613596221        1.9813669407       -1.6254006336
 C          5.0461155400        0.0699875673        0.1797269018
 C          5.4065313504       -0.1416474511        1.4945671398
 C          5.6116050930       -1.4403057458        1.9329020365
 C          5.4494365956       -2.4994342566        1.0538119525
 C          5.0902980364       -2.2702847163       -0.2658196358
 C          4.8850044678       -0.9743756777       -0.7094776867
 H          4.6118769386       -0.7623448017       -1.7305678102
 H          4.9667516985       -3.0960766013       -0.9479591317
 H          5.6045031796       -3.5099841369        1.3975673324
 H          5.8930083128       -1.6214023751        2.9577666308
 H          5.5206373571        0.7098405331        2.1454389478
 H          3.0066537112        1.5899257584       -1.8496533755
 H          3.0075718742        1.7393471975        1.7631523813
 H          1.4236632303        0.4323395140        3.1575069106
 H         -0.2719509601       -1.0003490529        2.0799770962
 H         -0.5832695465       -2.4293138282       -0.1107932548
 C         -0.6930910152       -1.4727245160       -2.0198920458
 C          0.2746143578       -2.3800787804       -2.7171521030
 C         -1.1871942165       -2.7101054949       -2.7043097075
 H         -1.7500010523       -2.6030981927       -3.6195882616
 H         -1.5257883414       -3.5221895646       -2.0774313577
 H          0.7151415544       -2.0513254969       -3.6464963377
 H          0.9316613717       -2.9750254049       -2.1013366041
 H         -0.9301646342       -0.5206622811       -2.4808424838
