  62
        -98.93377047
 C          1.7932124000       -0.0390737926       -0.2473320390
 C          2.7521310921       -0.7716264239        0.4924190820
 C          4.0930289203       -0.1621504711        0.6075141862
 C          4.3211728569        1.0416110564        0.0571911038
 C          5.6156632950        1.8060477460        0.0245515138
 C          6.3868692181        1.5122692845       -1.2734463908
 C          7.2996034553        0.2877167693       -1.2173024211
 H          7.6768235806        0.1172776019       -2.2283440710
 H          8.1586894795        0.5100668361       -0.5807996456
 C          6.6387059358       -0.9986483677       -0.7150189357
 H          5.6482874753       -1.1015907075       -1.1621151385
 H          7.2394872692       -1.8412249849       -1.0630522665
 C          6.5312386664       -1.0637263247        0.8158036793
 H          7.1521292728       -0.2797758267        1.2490397099
 H          6.9424926022       -2.0126613116        1.1661483098
 C          5.1056735255       -0.9642844104        1.3791368561
 H          4.6704763557       -1.9662602594        1.4469710820
 H          5.1525645826       -0.5754398414        2.4017393684
 H          7.0007531404        2.3807626439       -1.5208467856
 H          5.6552783416        1.3908826870       -2.0766454416
 H          6.2184042363        1.5827140605        0.8997914543
 H          5.3511411560        2.8655067950        0.0396855676
 O          3.3604298837        1.7283398270       -0.6219837316
 C          2.0926239733        1.2097151772       -0.7979905436
 O          1.3278444579        1.9409132717       -1.4601377474
 O          2.5269736977       -1.8844968099        1.0328005035
 C          0.3745650523       -0.5321844386       -0.4882234772
 C         -0.5194120757       -0.1153455066        0.6512274264
 C         -0.2188846957       -0.4708894734        1.9637500854
 C         -1.0323452270       -0.0614164286        3.0031029033
 C         -2.1622442685        0.6992475984        2.7563044893
 C         -2.4688781124        1.0624848220        1.4503674196
 C         -1.6495994033        0.6507587368        0.4063820358
 H         -1.8830771524        0.9657050699       -0.5997191245
 N         -3.5998025839        1.8421591894        1.1780022560
 S         -4.4565230420        1.6576170719       -0.2380097998
 O         -3.7697201602        2.2879558581       -1.3371823433
 O         -5.7686322204        2.1863095646        0.0699630953
 C         -4.5719372848       -0.1009848373       -0.5221140807
 C         -4.3456049589       -0.5898284824       -1.7925448035
 C         -4.4692539957       -1.9516144576       -2.0215775513
 C         -4.8085422846       -2.7986763367       -0.9782274179
 C         -5.0322307435       -2.2926794123        0.2928878684
 C         -4.9192772787       -0.9315247250        0.5253597188
 H         -5.0973341812       -0.5129384632        1.5022396173
 H         -5.2934251780       -2.9540231831        1.1030558825
 H         -4.8951790136       -3.8584808674       -1.1569397367
 H         -4.2934369768       -2.3450841223       -3.0099686351
 H         -4.0687390592        0.1023633671       -2.5720978714
 H         -4.1945510892        2.0409425205        1.9681619895
 H         -2.7956725794        1.0218251822        3.5684910852
 H         -0.7876340248       -0.3405285287        4.0167398063
 H          0.6591159870       -1.0687063926        2.1542387403
 H          0.0337900984        0.0081927717       -1.3857691601
 C          0.3073232593       -2.0229736982       -0.7966070841
 C         -0.4518768178       -3.0083367032        0.0364927810
 C         -0.9741739578       -2.6107229324       -1.3085691710
 H         -0.9303950747       -3.3238144163       -2.1175303384
 H         -1.8357386154       -1.9601401806       -1.3371668417
 H         -0.0215672854       -3.9904368448        0.1585250495
 H         -0.9720333916       -2.6482101174        0.9095606904
 H          1.2224064662       -2.3864540319       -1.2513792826
