  62
        -98.94624422
 C         -1.3735158377       -1.1180133063       -0.1185652639
 C         -2.4693510670       -1.1046720539        0.7811055511
 C         -3.2323367382        0.1476175287        0.8524637698
 C         -2.8379656350        1.1987478444        0.1106762470
 C         -3.5546178243        2.5158585289        0.0470833894
 C         -4.5922291414        2.5287084819       -1.0842491633
 C         -5.5170060702        1.3116349499       -1.0890387616
 H         -6.2255206317        1.4444430311       -1.9095685389
 H         -4.9302309487        0.4179321565       -1.3132530611
 C         -6.2877100965        1.0948644965        0.2207294498
 H         -6.2864729059        2.0135408580        0.8085313017
 H         -7.3282681500        0.8657305326       -0.0189067900
 C         -5.7650887051       -0.0574718302        1.0806316103
 H         -6.5026975501       -0.2602849333        1.8617685705
 H         -5.6796432022       -0.9601773421        0.4703309374
 C         -4.4186108465        0.1850678805        1.7743454082
 H         -4.4526122630        1.1284318991        2.3229817905
 H         -4.2655209946       -0.6248801680        2.4935255313
 H         -4.0630482185        2.5592132218       -2.0393896381
 H         -5.1877859230        3.4392682976       -0.9964159897
 H         -4.0407548258        2.7065161155        1.0017778584
 H         -2.8220049559        3.3019039803       -0.1406781845
 O         -1.7614863425        1.1609115871       -0.7123348673
 C         -1.0061019733        0.0070477191       -0.8585589197
 O         -0.0648113659        0.1201387087       -1.6654887545
 H          1.7692478239       -1.5410818632       -1.3961920363
 C          1.8628810587       -1.6562746936       -0.3283868009
 C          0.7873345542       -2.1198661167        0.4138819279
 C          0.9306010614       -2.2342923853        1.7936922682
 C          2.1193290093       -1.8936982719        2.4123191586
 C          3.1840627536       -1.4111452029        1.6705075467
 C          3.0439866505       -1.2807536156        0.2956615139
 N          4.1055594390       -0.7399191421       -0.4638139544
 S          4.5265948801        0.8394354243       -0.0911170944
 O          5.3369811615        1.2934983944       -1.1986708973
 O          5.1590940787        0.8559346392        1.2043997694
 C          2.9957572354        1.7524519574       -0.0300111983
 C          2.2848848493        1.8007662703        1.1521265036
 C          1.0757878584        2.4760092852        1.1769197908
 C          0.6046023340        3.0913885130        0.0282946600
 C          1.3278841444        3.0300796137       -1.1514863739
 C          2.5326902919        2.3488023726       -1.1848150260
 H          3.1250558908        2.2782241859       -2.0830892672
 H          0.9500306110        3.4988908239       -2.0456997082
 H         -0.3372198778        3.6165974661        0.0510563183
 H          0.5025009430        2.5149122202        2.0900024237
 H          2.6868764276        1.3187836507        2.0283066459
 H          3.9367752235       -0.8014067061       -1.4588007682
 H          4.1091727921       -1.1119949926        2.1362596963
 H          2.2172549652       -1.9959742517        3.4825713347
 H          0.0897544554       -2.5802866508        2.3783215482
 C         -0.5532086456       -2.3947689630       -0.2184141447
 H         -1.0820181462       -3.1305500348        0.4016599914
 C         -0.4692583619       -2.9218483062       -1.6351836394
 C          0.0124345617       -4.3221487459       -1.8659549465
 C         -1.4306646568       -3.9808161639       -2.0809840951
 H         -1.8070055573       -3.9417904151       -3.0923241003
 H         -2.1528827333       -4.3367764601       -1.3609428235
 H          0.6286770567       -4.5214396539       -2.7293360462
 H          0.2709033308       -4.9084934305       -0.9971809075
 H         -0.1987626064       -2.1667631453       -2.3627500720
 O         -2.7949646472       -2.0956305087        1.4878709936
