  62
        -98.93738947
 C          1.8269743444        0.7058188881       -0.8330869268
 C          2.1518606376        0.0184507656        0.3578992474
 C          3.5848738951       -0.0570579665        0.7104510127
 C          4.4846284672        0.5294552662       -0.1011256753
 C          5.9846220711        0.5509853974        0.0297163111
 C          6.6335104999       -0.7843424693       -0.3683408567
 C          5.9355303827       -2.0259974849        0.1799851574
 H          6.4248171711       -2.9009665876       -0.2560773103
 H          4.8980943123       -2.0325493510       -0.1588278202
 C          5.9750827813       -2.1771475231        1.6987860262
 H          7.0158489480       -2.2009790384        2.0294994064
 H          5.5284469361       -3.1451589977        1.9396849253
 C          5.2351981928       -1.1019908905        2.4979178296
 H          5.8172302015       -0.1861891375        2.5570811148
 H          5.1340038061       -1.4708346389        3.5228326271
 C          3.8241927725       -0.7983015985        2.0037950130
 H          3.3018516051       -0.2176575483        2.7738311913
 H          3.2626450183       -1.7357600330        1.9223396007
 H          7.6741627341       -0.7731150618       -0.0398149040
 H          6.6246836141       -0.8518455042       -1.4590093953
 H          6.2680024067        0.8336265361        1.0392094049
 H          6.3467273445        1.3282950796       -0.6469500581
 O          4.1202470599        1.1879705419       -1.2398947969
 C          2.8017962385        1.2976835955       -1.6335943864
 O          2.6257306817        1.9389576640       -2.6903168089
 O          1.2890333723       -0.5167320992        1.1019344700
 C          0.3780901230        0.8239100163       -1.2668327842
 C         -0.4443153672        1.4894355078       -0.1901132545
 C          0.0605202289        2.6204078871        0.4469418820
 C         -0.6638673462        3.2579440471        1.4345329260
 C         -1.9166410791        2.7938102422        1.7956833020
 C         -2.4370211182        1.6758689674        1.1567379378
 C         -1.7003337409        1.0294015535        0.1728407361
 H         -2.1226322189        0.1648223351       -0.3109469734
 N         -3.6966551163        1.1726429026        1.5097407415
 S         -4.7221285388        0.5558439047        0.3432753026
 O         -4.5894894212        1.2581014778       -0.9118062072
 O         -6.0335832375        0.5982590621        0.9555132295
 C         -4.2362758741       -1.1462562303        0.1518775595
 C         -4.3243698526       -1.7262745367       -1.0981901282
 C         -3.9906631060       -3.0639344972       -1.2430327423
 C         -3.5771652077       -3.7947656098       -0.1401081442
 C         -3.4969485318       -3.1979705681        1.1089373972
 C         -3.8330437924       -1.8622901048        1.2613341261
 H         -3.7769608825       -1.3682305114        2.2167732085
 H         -3.1715415150       -3.7683600629        1.9640611482
 H         -3.3143995945       -4.8345368841       -0.2553164959
 H         -4.0526995671       -3.5296336470       -2.2139826285
 H         -4.6402338956       -1.1177669195       -1.9307875116
 H         -4.1940548844        1.7078872313        2.2060936921
 H         -2.4849579348        3.2916923402        2.5666434898
 H         -0.2540142965        4.1287540558        1.9241387270
 H          1.0361320749        2.9896469810        0.1599376097
 H          0.3765333001        1.4835051588       -2.1478106533
 C         -0.1498220537       -0.5358949143       -1.6759492720
 C         -1.2183094441       -0.6536604933       -2.7194969216
 C          0.1881499836       -1.0611108325       -3.0376858885
 H          0.4087091060       -2.1122837349       -3.1457118827
 H          0.7754956342       -0.4228135793       -3.6820770174
 H         -1.9615323413       -1.4283264072       -2.6061577115
 H         -1.5980105723        0.2593221521       -3.1536251978
 H         -0.1578222518       -1.2416745507       -0.8530236891
