  62
        -98.94091010
 C         -1.7404682808       -1.3649760269        0.6269204917
 C         -1.8075671465       -0.0536476586        1.1654120385
 C         -3.0712523834        0.6656165401        0.9754017207
 C         -4.1032142312        0.0465569539        0.3747715544
 C         -5.4731699758        0.6256917851        0.1460249092
 C         -5.5869743248        1.4833218823       -1.1216214972
 C         -4.8914944247        2.8432271183       -1.0499980750
 H         -5.2296757927        3.4214402145       -1.9121970800
 H         -5.2209413450        3.3715591759       -0.1547652154
 C         -3.3584647378        2.7697933177       -1.0742805765
 H         -3.0467522485        1.7870119736       -1.4356493839
 H         -2.9700756379        3.5070079470       -1.7803603944
 C         -2.6864037441        3.0359170143        0.2728643681
 H         -2.8753052594        4.0669705896        0.5798034019
 H         -1.6091411257        2.9102834247        0.1409222749
 C         -3.1393243638        2.1007082184        1.4020975565
 H         -2.4627045918        2.2276274212        2.2508463245
 H         -4.1494881798        2.3566812459        1.7213272407
 H         -5.1888152598        0.9141054354       -1.9648045899
 H         -6.6505531791        1.6510001164       -1.3069084212
 H         -6.1563357561       -0.2211725819        0.0508468379
 H         -5.7704969029        1.2154279803        1.0137506362
 O         -4.0176859122       -1.2278054464       -0.0859156622
 C         -2.8293069125       -1.9511600986       -0.0200503253
 O         -2.9027906833       -3.0711697641       -0.5566115300
 H          2.1841732339       -1.3085562161        0.8738173448
 C          1.8124752807       -1.3592930177       -0.1378204087
 C          0.5022457160       -1.7440593768       -0.3797261836
 C          0.0538133456       -1.8089360129       -1.6955375009
 C          0.9035490066       -1.4954828509       -2.7400907572
 C          2.2073464741       -1.1013125823       -2.4943566681
 C          2.6666033356       -1.0343229196       -1.1840785602
 N          3.9914564937       -0.6646228439       -0.9131804491
 S          4.3730327411        0.3164001065        0.3872589743
 O          5.7259611641        0.7488847034        0.1146128225
 O          4.1722610225       -0.4013033187        1.6198862940
 C          3.2604117232        1.7032013537        0.2686133751
 C          2.1434270975        1.7702471897        1.0740792634
 C          1.2753071278        2.8406120663        0.9284244446
 C          1.5338412281        3.8178969543       -0.0189019050
 C          2.6649212712        3.7393502486       -0.8189263328
 C          3.5362959269        2.6727338346       -0.6773390462
 H          4.4329738855        2.5838769827       -1.2691779097
 H          2.8664469003        4.5046060887       -1.5512597758
 H          0.8517735100        4.6461966798       -0.1321759136
 H          0.3960816915        2.8794322664        1.5512745702
 H          1.9491680968        0.9976365604        1.7991896274
 H          4.5319481564       -0.4140802256       -1.7281779912
 H          2.8677060172       -0.8536823809       -3.3112043890
 H          0.5456980469       -1.5534199828       -3.7570155564
 H         -0.9631104828       -2.1175221586       -1.8880067259
 C         -0.4104257741       -2.0817764954        0.7725479127
 H          0.0439087269       -1.6551145757        1.6817971773
 C         -0.5405143334       -3.5811243796        0.9978259514
 C         -0.1482844234       -4.6058628704       -0.0193811290
 C          0.6897329959       -4.4140021208        1.2067837426
 H          0.6748997408       -5.1759970546        1.9713537218
 H          1.6464557779       -3.9264499367        1.0889489776
 H         -0.7621787721       -5.4897728294       -0.0996171384
 H          0.2442512024       -4.2637601805       -0.9639167725
 H         -1.4009242027       -3.8239278174        1.6129864640
 O         -0.8535573982        0.4866124456        1.7848655249
