  62
        -98.93298608
 C          2.4361785694        1.1405150008        0.2134006193
 C          3.2179460797        0.3192995511        1.0606965694
 C          3.8455964198       -0.8733173789        0.4586486795
 C          3.6109780296       -1.1378955093       -0.8397736004
 C          4.0938356896       -2.3080102494       -1.6546387802
 C          3.3156101199       -3.5982715094       -1.3498765098
 C          3.0754935603       -3.8688777391        0.1332519603
 H          2.4277164504       -4.7464343992        0.2088149607
 H          2.5286161102       -3.0286363491        0.5659220003
 C          4.3312482605       -4.1402215087        0.9586832202
 H          4.8516656806       -5.0054576287        0.5423117803
 H          4.0039538207       -4.4035256285        1.9677319303
 C          5.3251673703       -2.9818555885        1.0690123197
 H          5.9167146901       -2.8850465286        0.1626266196
 H          6.0255208305       -3.2308628882        1.8715243396
 C          4.7029384801       -1.6387831985        1.4378897595
 H          5.5067307401       -0.9506255483        1.7266518292
 H          4.0927744303       -1.7615596884        2.3399969597
 H          3.8523801300       -4.4383554694       -1.7937750697
 H          2.3389636198       -3.5265312897       -1.8360109896
 H          5.1596804197       -2.4534501891       -1.5062370404
 H          3.9350340594       -2.0468060896       -2.7032785702
 O          2.8114678493       -0.3447814196       -1.6083976904
 C          2.2006445792        0.7977203504       -1.1185533906
 O          1.4955220189        1.3919328501       -1.9553042106
 O          3.3800769699        0.5619924714        2.2874930193
 C          1.7735256093        2.3617169908        0.8263012492
 C          0.3154808292        2.3950153104        0.4410477694
 C         -0.2923800211        3.4579366202       -0.2124953207
 C         -1.6290601312        3.3893563198       -0.5653363404
 C         -2.3882838709        2.2714637798       -0.2727498900
 C         -1.7904859106        1.2022976900        0.3814440501
 C         -0.4545391105        1.2781390604        0.7417308098
 H          0.0121918197        0.4390486606        1.2453467100
 N         -2.5473328703        0.0561381300        0.7013537705
 S         -3.3289838704       -0.8058888405       -0.5167795691
 O         -2.7707568402       -2.1424910404       -0.5405184689
 O         -3.3017351008       -0.0729561507       -1.7583124293
 C         -5.0101308703       -0.8929561206        0.0769822612
 C         -5.7229946501       -2.0627365208       -0.0993016384
 C         -7.0400872600       -2.1196364009        0.3297081619
 C         -7.6207795301       -1.0098836409        0.9236907718
 C         -6.8914834703        0.1567937693        1.0962886814
 C         -5.5741201004        0.2195082194        0.6696501111
 H         -4.9771855305        1.1074047395        0.7976810908
 H         -7.3434321703        1.0178133793        1.5619846613
 H         -8.6458839400       -1.0551055510        1.2561424920
 H         -7.6062767499       -3.0278247011        0.1986433822
 H         -5.2297835000       -2.9032145008       -0.5602185783
 H         -2.0289723501       -0.6015730698        1.2669684006
 H         -3.4186982810        2.2052080995       -0.5813433298
 H         -2.0854959314        4.2183058696       -1.0848205305
 H          0.2863651687        4.3280540002       -0.4749940210
 H          1.8325625295        2.1844175710        1.9137789692
 C          2.5022664990        3.6706619309        0.5644023487
 C          3.9767890489        3.6932834111        0.2970180784
 C          3.0123883986        4.0476300506       -0.7929902715
 H          2.9425925784        5.0818609606       -1.0971981317
 H          2.8584971986        3.3452822604       -1.5970707813
 H          4.5665161889        4.4811235313        0.7411265881
 H          4.4897437491        2.7442116911        0.2368082485
 H          2.1163484090        4.4775183909        1.1798462786
