  62
        -98.93558043
 C         -1.9379681073       -0.9977928927        0.2206787895
 C         -2.3733552893       -0.0053381667        1.1301210258
 C         -2.5918501633        1.3482165210        0.5927177083
 C         -2.3310478291        1.5890592809       -0.7054016506
 C         -2.3921515461        2.8673768024       -1.5161008121
 C         -3.0929969078        4.1078882279       -0.9685679935
 C         -4.6103350633        3.9778839291       -0.8364701688
 H         -4.9879253890        4.8730311983       -0.3379358911
 H         -5.0433852989        3.9463770908       -1.8392695478
 C         -5.1029034784        2.7443200509       -0.0842328819
 H         -4.8034484098        1.8432276071       -0.6233740935
 H         -6.1958624889        2.7696162020       -0.0795598474
 C         -4.6354782747        2.6326055455        1.3655170098
 H         -5.1785536785        1.8018878076        1.8242181511
 H         -4.8969772206        3.5430819830        1.9079709228
 C         -3.1329590456        2.3633638930        1.5583360051
 H         -2.5545511183        3.2833268715        1.5110738996
 H         -2.9890226539        1.9401557326        2.5570325617
 H         -2.8910131305        4.9163700519       -1.6764480803
 H         -2.6490093875        4.4012596965       -0.0217827231
 H         -2.8452922773        2.5923009039       -2.4740700805
 H         -1.3478462687        3.1215189151       -1.7313400374
 O         -1.8811113884        0.6079695469       -1.5400403881
 C         -1.6547917810       -0.6890672177       -1.1099300767
 O         -1.2275893537       -1.4464310930       -2.0015207776
 O         -2.5629409084       -0.2374820896        2.3559756536
 C         -1.6390377043       -2.3821512328        0.7692334346
 C         -0.2644929642       -2.8031958526        0.3123664443
 C          0.0119042085       -3.9980628196       -0.3372106855
 C          1.2987220209       -4.2773049355       -0.7653169892
 C          2.3247265863       -3.3721936303       -0.5712369761
 C          2.0594751216       -2.1772213670        0.0898677890
 C          0.7799013016       -1.9161244304        0.5456262225
 H          0.5821044634       -0.9822495927        1.0539039174
 N          3.0810562446       -1.2374419123        0.3215617485
 S          2.6746882901        0.4013690402        0.3138171918
 O          2.1438469143        0.7516593485        1.6089305947
 O          1.8468156684        0.7217260162       -0.8274316262
 C          4.2962470780        1.1203076538        0.1245079049
 C          5.1028837699        1.2396187662        1.2405620116
 C          6.3764803164        1.7656496272        1.0933246465
 C          6.8204468599        2.1601954575       -0.1601783617
 C          5.9992014563        2.0359084359       -1.2706752292
 C          4.7245674235        1.5092768844       -1.1304970504
 H          4.0471832424        1.4002031911       -1.9625769836
 H          6.3452362430        2.3460016471       -2.2434647579
 H          7.8117538651        2.5699187925       -0.2721798776
 H          7.0165500619        1.8662662281        1.9548379815
 H          4.7094401028        0.9276614451        2.1938545545
 H          3.9032023974       -1.4123792779       -0.2407690686
 H          3.3205964728       -3.5810947985       -0.9314445956
 H          1.4999624873       -5.2058151470       -1.2779415063
 H         -0.7828990334       -4.6979120794       -0.5360906301
 H         -1.6005190712       -2.2360905397        1.8627734888
 C         -2.7190836916       -3.4207868998        0.5093481886
 C         -4.1382913487       -3.0112128336        0.2554886315
 C         -3.3269542850       -3.6221562022       -0.8452841468
 H         -3.5639172689       -4.6296427040       -1.1547969734
 H         -2.9790947031       -2.9874345874       -1.6447727201
 H         -4.9287381417       -3.5959277456        0.7016278457
 H         -4.3507294345       -1.9529027043        0.2065872661
 H         -2.5805155068       -4.3095842682        1.1174313609
