  62
        -98.93900631
 C         -0.4641476730       -1.9360064440       -0.0228626741
 C         -1.7346072684       -2.0205970032        0.5966001742
 C         -2.7741431654       -1.1137944253        0.0902540045
 C         -2.4654267125       -0.2537644198       -0.8965994101
 C         -3.3803542166        0.8030114772       -1.4481200687
 C         -3.4359085424        2.0053593435       -0.4832187238
 C         -4.8027886607        2.2344954247        0.1634454915
 H         -5.4713665387        2.6879970740       -0.5716440842
 H         -4.6619396548        2.9556977325        0.9716296172
 C         -5.4965837312        0.9885121330        0.7219398154
 H         -5.9706418144        0.4367147831       -0.0912771238
 H         -6.3011596458        1.3375359588        1.3726194674
 C         -4.6050245963        0.0242392583        1.5151058510
 H         -5.1764483055       -0.3438151187        2.3699248379
 H         -3.7348818309        0.5455987017        1.9173479307
 C         -4.1349869049       -1.2095800714        0.7215327646
 H         -4.8775802911       -1.4591938970       -0.0415920890
 H         -4.0670731066       -2.0599417011        1.4066386132
 H         -3.1609724575        2.9167373415       -1.0181289417
 H         -2.6840010620        1.8589603255        0.2978010379
 H         -4.3748015218        0.3880478400       -1.5976776193
 H         -2.9797154845        1.1092095026       -2.4145317201
 O         -1.2351531036       -0.1968234360       -1.4655566659
 C         -0.1962032356       -1.0092742018       -1.0319683520
 O          0.8811939947       -0.8053139263       -1.6197356135
 O         -1.9849824478       -2.8164431867        1.5433613131
 C          0.6531744930       -2.7935930255        0.5420679185
 C          1.8759504581       -1.9474771037        0.8042554396
 C          3.1767196901       -2.3746356024        0.5694776116
 C          4.2487365046       -1.5416125955        0.8415651837
 C          4.0497248636       -0.2596576707        1.3191170512
 C          2.7506756214        0.1800396824        1.5488303227
 C          1.6857400277       -0.6738350558        1.3256257959
 H          0.6859198212       -0.3198257800        1.5291596002
 N          2.4870966421        1.4864487903        2.0014279837
 S          1.2672319089        2.3716347738        1.2824147894
 O          1.5295502724        3.7344228423        1.7040111395
 O         -0.0265895501        1.8529403417        1.6564499777
 C          1.4767740033        2.2791489933       -0.4875352427
 C          0.3519033709        2.4515880711       -1.2660198907
 C          0.4766216848        2.4427833860       -2.6446576634
 C          1.7226805924        2.2630279989       -3.2214428645
 C          2.8453020193        2.1001782006       -2.4268487279
 C          2.7268978484        2.1140841536       -1.0467889846
 H          3.5919415169        1.9836214043       -0.4179644948
 H          3.8140716905        1.9541878908       -2.8771035494
 H          1.8175468616        2.2431789896       -4.2958299148
 H         -0.4000209680        2.5634321894       -3.2610745351
 H         -0.6015756869        2.5708010035       -0.7775574575
 H          3.3060358080        2.0611545937        2.1405826075
 H          4.8861817237        0.3957547831        1.5104378493
 H          5.2539064207       -1.8901641798        0.6600204616
 H          3.3555078128       -3.3557885154        0.1619046021
 H          0.2658816551       -3.1298881811        1.5196660597
 C          0.9515911525       -4.0536007818       -0.2599145305
 C         -0.0029104830       -4.5646675449       -1.2963820629
 C          1.3181862579       -3.9946007700       -1.7117883299
 H          2.0749664970       -4.6722210596       -2.0789407164
 H          1.3318556511       -3.0212176985       -2.1760531334
 H         -0.1542268912       -5.6314697675       -1.3691672511
 H         -0.8931941012       -3.9834976388       -1.4895404136
 H          1.4484408349       -4.8120186980        0.3370663630
