  62
        -98.94006880
 C         -1.0162187706       -1.6167192785        0.1006425506
 C         -1.5378687840       -0.6346735584        0.9718255991
 C         -2.7696665312        0.0508390745        0.5436278264
 C         -3.2964764877       -0.2493352969       -0.6570161256
 C         -4.5311322441        0.3169757177       -1.3110873830
 C         -4.6853795479        1.8453447682       -1.2615905713
 C         -5.8203476102        2.3111161970       -0.3480097839
 H         -6.1435911838        3.3030420692       -0.6715705122
 H         -6.6677541505        1.6341212378       -0.4749071395
 C         -5.4634889618        2.4025969110        1.1344332297
 H         -6.3851423472        2.6093201959        1.6835796479
 H         -4.7936957901        3.2510772870        1.2913623930
 C         -4.8073381751        1.1550365249        1.7296339122
 H         -5.2823104191        0.2528500348        1.3464553056
 H         -4.9782165664        1.1725126362        2.8081403026
 C         -3.2901812697        1.0876290470        1.5016029292
 H         -2.9128473626        2.0662696240        1.1870208762
 H         -2.7875049942        0.8658127531        2.4485825011
 H         -4.9022501904        2.1923200998       -2.2733890862
 H         -3.7421719691        2.3026587790       -0.9631577173
 H         -5.4104911051       -0.1593650498       -0.8708090178
 H         -4.4806551639       -0.0175417477       -2.3497061391
 O         -2.7444134290       -1.1868545948       -1.4796598444
 C         -1.5918763842       -1.8758122805       -1.1416958739
 O         -1.1941624881       -2.6715278318       -2.0138206668
 O         -0.9921624782       -0.3365328003        2.0701894129
 C          0.2682070366       -2.3280852219        0.4803655203
 C          1.3907569047       -1.9162459339       -0.4423414457
 C          2.3904613059       -2.7825480379       -0.8674707721
 C          3.4075081773       -2.3260077683       -1.6884637653
 C          3.4677375370       -1.0009639913       -2.0811150858
 C          2.4748997161       -0.1253674761       -1.6564748941
 C          1.4490322636       -0.5913558566       -0.8512722445
 H          0.6691977698        0.0925962117       -0.5556181784
 N          2.4871226391        1.2286455608       -2.0226758091
 S          1.9559534622        2.3833578178       -0.9348901381
 O          0.5172906402        2.3680353220       -0.8404291884
 O          2.5394197943        3.6168613622       -1.4194927727
 C          2.7161053575        1.9317453110        0.6146742129
 C          4.0815079782        2.1217063707        0.7188339796
 C          4.7284795477        1.7410892057        1.8821084224
 C          4.0031439081        1.1716307255        2.9182683866
 C          2.6343254150        0.9929395344        2.8007073666
 C          1.9793981876        1.3756988735        1.6397492432
 H          0.9145312471        1.2383339648        1.5331438296
 H          2.0603567204        0.5516053787        3.6000060032
 H          4.5056140223        0.8685454150        3.8232808063
 H          5.7925447164        1.8854271249        1.9771722411
 H          4.6065641019        2.5787699349       -0.1041946043
 H          3.3095634329        1.5304454213       -2.5235439633
 H          4.2652039330       -0.6476941239       -2.7164173259
 H          4.1717045025       -3.0118623534       -2.0209913831
 H          2.3687576097       -3.8160587017       -0.5631064793
 H          0.5177648544       -1.9575095514        1.4869364102
 C          0.0626383980       -3.8264986632        0.5514071012
 C          0.8441172761       -4.6519864812        1.5284481362
 C         -0.6159752527       -4.4054471246        1.7558075211
 H         -1.3090028064       -5.2210873496        1.6145632874
 H         -0.9045219139       -3.7196154628        2.5390887053
 H          1.1539201130       -5.6431777223        1.2333717972
 H          1.5476226549       -4.1393663934        2.1668554847
 H         -0.1762938415       -4.2591481987       -0.4132427721
