  62
        -98.94687770
 C          1.1487795165        1.1571860243       -0.1769280266
 C          2.0061906166        0.8344543290        0.9089825756
 C          2.8327703689       -0.3683687662        0.7570860239
 C          2.7225959076       -1.0995838797       -0.3665712024
 C          3.5531355967       -2.3071872943       -0.6899729374
 C          4.8225203229       -1.9150671341       -1.4593962056
 C          5.6053713436       -0.7698700804       -0.8169676258
 H          6.4959104178       -0.6024328917       -1.4267058825
 H          5.0073415479        0.1429782145       -0.8658486669
 C          6.0228206869       -1.0237185497        0.6384208025
 H          5.9669476321       -2.0901488714        0.8598853630
 H          7.0653689759       -0.7226475305        0.7611570027
 C          5.2102040571       -0.2465990747        1.6759372595
 H          5.1905736165        0.8124369397        1.4066570845
 H          5.7212713248       -0.3290862630        2.6389049665
 C          3.7652521694       -0.7186021695        1.8822116908
 H          3.7552126747       -1.7937133356        2.0725532820
 H          3.3735478896       -0.2084200935        2.7668379071
 H          5.4631991257       -2.7951005650       -1.5403207927
 H          4.5361278480       -1.6097122374       -2.4684231444
 H          3.8229579784       -2.8177050196        0.2326357118
 H          2.9595613377       -2.9803185659       -1.3102831432
 O          1.8638795123       -0.7859340857       -1.3657752180
 C          1.0591476035        0.3404129487       -1.3043096503
 O          0.3316694640        0.4775894542       -2.3093865820
 H         -1.5501433964        1.0415544476       -1.3925507939
 C         -1.9172426072        1.3795898850       -0.4350466245
 C         -1.0824998272        2.1172614523        0.3924461968
 C         -1.5667509697        2.5220753131        1.6306228512
 C         -2.8529305991        2.1970741562        2.0278933514
 C         -3.6778448247        1.4509240836        1.2044882502
 C         -3.1970500405        1.0359952760       -0.0299542717
 N         -4.0054708745        0.2128460017       -0.8524333037
 S         -4.1724156077       -1.3475867593       -0.2623781041
 O         -4.7145277851       -2.1299239416       -1.3494625688
 O         -4.9613312272       -1.2973071134        0.9421532659
 C         -2.5158515245       -1.8897298420        0.1237131626
 C         -1.9654541291       -1.5514871480        1.3441129434
 C         -0.6635213600       -1.9353509234        1.6201638653
 C          0.0579145357       -2.6559828525        0.6815241217
 C         -0.5062589222       -2.9819474070       -0.5416152412
 C         -1.8027247466       -2.5879856778       -0.8292198445
 H         -2.2770004373       -2.8223287404       -1.7689675104
 H          0.0615818097       -3.5332466843       -1.2738902379
 H          1.0681180666       -2.9603256462        0.9053203549
 H         -0.2130815755       -1.6680551024        2.5628549261
 H         -2.5606845685       -1.0045010959        2.0568232780
 H         -3.6529839072        0.1585137892       -1.7991618773
 H         -4.6704592379        1.1599930188        1.5076682586
 H         -3.2144988667        2.5209476278        2.9919744021
 H         -0.9207628019        3.0807896480        2.2919142177
 C          0.3301559727        2.4311387040       -0.0352578964
 H          0.8091233478        2.9896240809        0.7799824627
 C          0.3441172965        3.2954810775       -1.2810369072
 C          0.0226803349        4.7535465360       -1.1571007268
 C          1.4256592285        4.3174703163       -1.4533762795
 H          1.8225976178        4.4851347277       -2.4433751709
 H          2.1627299819        4.4035478828       -0.6682291653
 H         -0.1908124753        5.1367731345       -0.1708100276
 H         -0.5472901564        5.2236600969       -1.9436573749
 H          0.0050647903        2.7791319774       -2.1695416576
 O          2.0824177648        1.5317740068        1.9548983630
