  62
        -98.94087671
 C          1.8390184467        0.7202125918        0.5496547927
 C          2.3097086386       -0.0197424142       -0.5636474977
 C          3.4454772609       -0.9150770682       -0.2960773543
 C          3.9155213931       -1.0537724945        0.9557644608
 C          5.0530828185       -1.9399675495        1.3847477508
 C          6.4390908793       -1.3077805514        1.1972199968
 C          6.9158970244       -1.2030564537       -0.2520376551
 H          7.9770272698       -0.9478025628       -0.2218940901
 H          6.8294995105       -2.1780179319       -0.7328350029
 C          6.1783219009       -0.1476652735       -1.0880165818
 H          5.6554652818        0.5436988075       -0.4230608798
 H          6.9039390631        0.4410911337       -1.6535700804
 C          5.1782960592       -0.7201855629       -2.0928002889
 H          5.7095760149       -1.3094030327       -2.8434500579
 H          4.6906559707        0.1136676269       -2.6043477375
 C          4.0858578615       -1.5973783153       -1.4668351194
 H          3.3092117973       -1.7686476951       -2.2165240352
 H          4.5012611228       -2.5596165576       -1.1679199252
 H          7.1542613951       -1.9222394609        1.7489404721
 H          6.4346945233       -0.3144963021        1.6522561491
 H          5.0062941353       -2.8853920807        0.8433888457
 H          4.9070056764       -2.1409193222        2.4484000111
 O          3.3715675349       -0.3968590883        2.0152815687
 C          2.3400286163        0.5114609999        1.8369182832
 O          1.9467094447        1.0489617934        2.8922065433
 O          1.8219866730        0.0517668769       -1.7198090449
 C          0.7056367212        1.7233602784        0.4193253955
 C         -0.4266201619        1.1193798625       -0.3749571854
 C         -0.9366202306        1.6712535349       -1.5417878449
 C         -1.9770839775        1.0515465528       -2.2128110953
 C         -2.5341131765       -0.1198498934       -1.7355341291
 C         -2.0379158678       -0.6747869944       -0.5621290201
 C         -1.0013501008       -0.0491486349        0.1119903964
 H         -0.6110231395       -0.4855946095        1.0239288921
 N         -2.6036493715       -1.8599478159       -0.0614628179
 S         -4.2717700229       -1.9852715757       -0.0380770781
 O         -4.5672579511       -2.8981615523        1.0442144967
 O         -4.7485749684       -2.3799154935       -1.3401249402
 C         -4.8593443722       -0.3451150057        0.3474745630
 C         -4.4837071668        0.2125835142        1.5536405801
 C         -4.8995554535        1.4988600039        1.8559381510
 C         -5.6797186252        2.2024902952        0.9508495524
 C         -6.0530629795        1.6267007197       -0.2533495795
 C         -5.6386953533        0.3407292454       -0.5614795814
 H         -5.9044266271       -0.1443110302       -1.4864985070
 H         -6.6613709636        2.1753448847       -0.9540611676
 H         -5.9983518422        3.2052377673        1.1879732770
 H         -4.6103778714        1.9476349341        2.7927757397
 H         -3.8809025476       -0.3626437490        2.2383640564
 H         -2.1982459156       -2.1752068840        0.8069833953
 H         -3.3306262433       -0.6236393691       -2.2586862665
 H         -2.3550666646        1.4838829509       -3.1265627743
 H         -0.5015079524        2.5711528491       -1.9434465171
 H          0.3442215623        1.8750640607        1.4499832988
 C          1.1420441712        3.0897018517       -0.0885161728
 C          2.5329801391        3.5928535984        0.1550536333
 C          2.0906038667        3.2569152840       -1.2358022829
 H          1.9196484623        4.0691524228       -1.9272377602
 H          2.4765617525        2.3637212804       -1.7000255725
 H          2.6643002952        4.6313216734        0.4198149816
 H          3.2270524657        2.9271441006        0.6480386138
 H          0.3474383419        3.8242932147       -0.0029054598
