  62
        -98.94541957
 C         -2.5933228175       -0.0531245443       -0.5096115725
 C         -2.4956917501       -0.7782449063        0.7025210093
 C         -2.0647237411       -2.1747923518        0.5766398225
 C         -1.7669674900       -2.6762042202       -0.6354583820
 C         -1.2712054879       -4.0678167335       -0.9194837644
 C          0.2401804188       -4.2314215147       -0.7035682745
 C          0.6876194328       -4.2969251346        0.7577761175
 H          0.0740951336       -5.0211741302        1.2953396464
 H          1.7130606189       -4.6719184555        0.7585521518
 C          0.6602961298       -2.9469861208        1.4881956907
 H          1.5770387774       -2.8352254949        2.0729217304
 H          0.6509403735       -2.1366639663        0.7551846092
 C         -0.5079177212       -2.7665846609        2.4579003604
 H         -0.4005806856       -3.4635076514        3.2929745363
 H         -0.4654313933       -1.7496883884        2.8566755690
 C         -1.8941394257       -2.9708453790        1.8355884727
 H         -2.0673567094       -4.0289681487        1.6401172755
 H         -2.6419291037       -2.6183837477        2.5507862539
 H          0.5413825834       -5.1585117121       -1.1974794266
 H          0.7538634088       -3.4035285514       -1.1995714875
 H         -1.8114083140       -4.7871705756       -0.3030083096
 H         -1.4951156042       -4.2701186899       -1.9691303743
 O         -1.8968144602       -1.9534706261       -1.7807118959
 C         -2.2788255149       -0.6230770352       -1.7420146347
 O         -2.3130157047       -0.0639325522       -2.8600033338
 O         -2.7487001487       -0.2860752093        1.8333895397
 C         -2.8939514059        1.4344355846       -0.4722780037
 C         -1.8024358814        2.1256060256        0.3134323765
 C         -2.0305775909        3.1569549145        1.2141124481
 C         -0.9725220586        3.7224159889        1.9066898431
 C          0.3216400518        3.2709587999        1.7268776924
 C          0.5600175539        2.2361400244        0.8269588123
 C         -0.4962258314        1.6964611514        0.1149985059
 H         -0.3010136008        0.9106094776       -0.5996038805
 N          1.8503128100        1.7038072328        0.6690292313
 S          2.2645360330        0.8238775646       -0.7045851889
 O          2.0875559092        1.6360229216       -1.8900855851
 O          1.5861937918       -0.4466417764       -0.6870074305
 C          3.9998528466        0.5771742523       -0.3825772170
 C          4.9271093669        1.4454522689       -0.9266984783
 C          6.2702111765        1.2575526893       -0.6397888151
 C          6.6603431943        0.2121178561        0.1836304435
 C          5.7180742280       -0.6525657721        0.7207926578
 C          4.3739120036       -0.4705183827        0.4372763253
 H          3.6049303558       -1.1200148035        0.8227487729
 H          6.0249439973       -1.4662081037        1.3579182980
 H          7.7058737858        0.0681208664        0.4057571425
 H          7.0053376267        1.9253930680       -1.0590124103
 H          4.5777813518        2.2372072549       -1.5698103567
 H          2.5868538754        2.3357293537        0.9496375776
 H          1.1392675601        3.7028268413        2.2831028481
 H         -1.1614198828        4.5239685886        2.6046993522
 H         -3.0344226698        3.5131366625        1.3787451814
 H         -2.8372790171        1.7845842561       -1.5145378882
 C         -4.2853298794        1.7006688097        0.0614701530
 C         -5.0547977566        2.9010622612       -0.3993894471
 C         -5.4560422495        1.5323150228       -0.8581413311
 H         -6.3628576470        1.0986159912       -0.4645670895
 H         -5.2449204011        1.2508296938       -1.8799705598
 H         -5.6919908281        3.4084515260        0.3091280725
 H         -4.5805352362        3.5545513934       -1.1162434218
 H         -4.4035479919        1.3758697401        1.0884765060
