  62
        -98.94505729
 C         -2.5534482248       -0.1143689798        0.4177132777
 C         -2.3525485228        0.5483192111       -0.8169139153
 C         -2.1321509373        1.9986781310       -0.7370290356
 C         -2.1402237103        2.6023206574        0.4650022515
 C         -1.9377352928        4.0728711833        0.6893742790
 C         -0.4673104867        4.4195922339        0.9543607096
 C          0.5096620662        3.8332136267       -0.0650018751
 H          1.5024601615        4.2125845021        0.1890276127
 H          0.5504950242        2.7477170465        0.0524632707
 C          0.1941782663        4.1757668813       -1.5274796840
 H         -0.4571885338        5.0497675064       -1.5735363920
 H          1.1276421483        4.4389867521       -2.0292697485
 C         -0.4308888850        3.0296151138       -2.3257236969
 H          0.1423561538        2.1146320604       -2.1530084578
 H         -0.3559703352        3.2732004486       -3.3891116743
 C         -1.9064380217        2.7345663109       -2.0271575609
 H         -2.4818550782        3.6626779635       -2.0511431022
 H         -2.2825295658        2.0749862616       -2.8147958334
 H         -0.3717370991        5.5075659232        0.9682977769
 H         -0.1936994872        4.0409123132        1.9422157973
 H         -2.2965411202        4.6156022187       -0.1833511990
 H         -2.5305685390        4.3676195296        1.5575865732
 O         -2.3307957085        1.9307243387        1.6310663741
 C         -2.5150021565        0.5577997061        1.6372068193
 O         -2.6449838337        0.0603356343        2.7767011411
 O         -2.3704260102       -0.0396006468       -1.9304227772
 C         -2.7597476944       -1.6171420803        0.4404292536
 C         -1.6054128676       -2.3190099474       -0.2352427220
 C         -1.7576336818       -3.4760220179       -0.9885886234
 C         -0.6556548450       -4.0822236659       -1.5676570986
 C          0.6107114550       -3.5496001607       -1.4170579460
 C          0.7728970787       -2.3878985874       -0.6679202775
 C         -0.3279880650       -1.8005802325       -0.0688058273
 H         -0.1917850064       -0.9111060363        0.5291589447
 N          2.0380198187       -1.7897933381       -0.5493673004
 S          2.3292688922       -0.5941124639        0.5937899066
 O          2.0779736985       -1.0942143076        1.9293796412
 O          1.6248145186        0.6021131848        0.2102434547
 C          4.0812493984       -0.3705636124        0.3531874924
 C          4.5155745569        0.5169523746       -0.6126770340
 C          5.8775169851        0.6664908413       -0.8216395965
 C          6.7774412513       -0.0710830888       -0.0668315913
 C          6.3270458185       -0.9562321584        0.9011847676
 C          4.9663634426       -1.1101038954        1.1150270030
 H          4.5704709946       -1.7760644259        1.8649463509
 H          7.0289139247       -1.5252572244        1.4892434143
 H          7.8366974103        0.0472347828       -0.2315731883
 H          6.2308991437        1.3567371978       -1.5705251325
 H          3.7782818253        1.0732065398       -1.1680896912
 H          2.8095307295       -2.4325503793       -0.6545980943
 H          1.4659109091       -4.0164363957       -1.8806093463
 H         -0.7868696421       -4.9820102367       -2.1494446365
 H         -2.7386626998       -3.9014697389       -1.1239271718
 H         -2.7598287577       -1.9087902474        1.5023011438
 C         -4.1050247617       -1.9696635688       -0.1631369440
 C         -4.8884415303       -3.1383369722        0.3525501740
 C         -5.3415846971       -1.7419286963        0.6516107069
 H         -6.2240151490       -1.3651008940        0.1568968693
 H         -5.2067232025       -1.3613611923        1.6540812617
 H         -5.4656541869       -3.7218498773       -0.3488336511
 H         -4.4588199018       -3.7123014782        1.1598215844
 H         -4.1534854376       -1.7440319152       -1.2222993737
