  62
        -98.94522320
 C         -1.6108822072       -0.2339200895       -0.5995796697
 C         -2.8855317963       -0.7202374071       -0.9818758697
 C         -3.9449807695       -0.6243642687        0.0302042356
 C         -3.6473996200       -0.1331413722        1.2469745988
 C         -4.6378102090        0.0623867463        2.3574394829
 C         -5.2563061865        1.4666539827        2.3090307995
 C         -5.7756202070        1.8657450018        0.9276764987
 H         -4.9306717936        1.9519934782        0.2408398620
 H         -6.2167731290        2.8603873451        1.0214642637
 C         -6.8121521010        0.9004937126        0.3358649053
 H         -7.6333684001        1.4840426606       -0.0855185895
 H         -7.2308830715        0.2763220059        1.1260980573
 C         -6.2789479041        0.0076640760       -0.7861222375
 H         -5.7765491983        0.6232973622       -1.5363563544
 H         -7.1320966064       -0.4714193063       -1.2737420305
 C         -5.3163525488       -1.1053519362       -0.3531202398
 H         -5.1714835581       -1.7709547001       -1.2091256548
 H         -5.7629654290       -1.6833128434        0.4585934862
 H         -4.4952591870        2.1897921112        2.6113483846
 H         -6.0719026637        1.5092416189        3.0332064679
 H         -5.4176849250       -0.6926838368        2.2790952942
 H         -4.1170695806       -0.0638218074        3.3082886011
 O         -2.4050632939        0.2909245475        1.5905052979
 C         -1.3568137590        0.2607821023        0.6801748606
 O         -0.2830431681        0.7028703483        1.1292025111
 H          2.1191245117       -0.0476377663       -0.7275700006
 C          1.7775435234       -1.0668545583       -0.7239554926
 C          0.4970240522       -1.3704476519       -1.1551929580
 C          0.0882688928       -2.7024754282       -1.1484871740
 C          0.9427550776       -3.6995691771       -0.7211996256
 C          2.2163496763       -3.3882499848       -0.2744522846
 C          2.6311215110       -2.0635048524       -0.2694599391
 N          3.9207624644       -1.7027962397        0.1639441612
 S          4.0419157366       -0.5468518279        1.3829758571
 O          5.3811033074       -0.7283019032        1.9067441588
 O          2.9695715451       -0.6812896824        2.3406295313
 C          3.9694934355        1.0161843121        0.5363550898
 C          5.0106235403        1.3351555755       -0.3136642231
 C          4.9764164098        2.5441319037       -0.9892175668
 C          3.9093306379        3.4098073316       -0.7998156817
 C          2.8754734317        3.0753983145        0.0614426402
 C          2.9000745063        1.8659842532        0.7396893600
 H          2.0955872938        1.5575596947        1.3901636174
 H          2.0416475284        3.7445197549        0.2056855589
 H          3.8801804193        4.3505401865       -1.3271323533
 H          5.7772818588        2.8074959706       -1.6611114128
 H          5.8224292152        0.6358637494       -0.4246830287
 H          4.5120511735       -2.4922274835        0.3858040667
 H          2.8820341242       -4.1654782024        0.0705379963
 H          0.6147555168       -4.7283404601       -0.7269119731
 H         -0.9112940477       -2.9425525101       -1.4840300666
 C         -0.4784304942       -0.3127716105       -1.6106168932
 H         -0.9466815649       -0.6656827692       -2.5406621952
 C          0.1541416494        1.0393789609       -1.8589376104
 C          1.0152611112        1.2453474840       -3.0681637037
 C         -0.3366334287        1.8871709268       -2.9921720911
 H         -0.3945977203        2.9553495295       -2.8474488702
 H         -1.1281005266        1.4873968688       -3.6092479711
 H          1.1412109312        0.4077641980       -3.7372062335
 H          1.8897567912        1.8712396713       -2.9743419390
 H          0.4361268100        1.5485220990       -0.9455788100
 O         -3.1250769051       -1.2117997488       -2.1175521414
