  62
        -98.94117792
 C         -1.9594843053       -0.9153704160       -0.2161358800
 C         -2.5249036647       -0.2804857387        0.9201822290
 C         -2.8042095408        1.1546765398        0.8044936931
 C         -2.4755276160        1.7927511263       -0.3329905768
 C         -2.7271317908        3.2473538059       -0.6053846439
 C         -4.0918128431        3.4627527235       -1.2747417565
 C         -5.2440150795        2.7471123427       -0.5696352379
 H         -5.0976845676        1.6681768874       -0.6572235689
 H         -6.1596694524        2.9932328063       -1.1114697363
 C         -5.4096148806        3.1170900715        0.9109030203
 H         -6.4688949423        3.2893353375        1.1123089092
 H         -4.8833688484        4.0488675561        1.1204948748
 C         -4.9395560275        2.0395803145        1.8898317144
 H         -5.3915998353        1.0808852107        1.6240356115
 H         -5.2987472177        2.3061766865        2.8872907682
 C         -3.4212872931        1.8435351204        1.9894472158
 H         -3.2239187387        1.1936978974        2.8470610739
 H         -2.9354066823        2.8049149059        2.1694084723
 H         -4.0348200290        3.0927008293       -2.3010256785
 H         -4.2929506673        4.5349856123       -1.3101645922
 H         -2.6779591326        3.7979601681        0.3322484226
 H         -1.9409262249        3.6104878771       -1.2698675180
 O         -1.9151272398        1.1625431760       -1.3942550287
 C         -1.6366228501       -0.1985388671       -1.3690583768
 O         -1.1286511057       -0.6149743465       -2.4293532790
 H          0.6750216363       -1.1732689839       -0.8127340193
 C          0.8140428002       -1.8500251970        0.0171721142
 C         -0.2588610681       -2.5701568239        0.5213840039
 C         -0.0383496482       -3.4445190426        1.5793351370
 C          1.2234175252       -3.5802021334        2.1298061114
 C          2.2817100806       -2.8287409825        1.6528904117
 C          2.0724040438       -1.9564573885        0.5903221343
 N          3.1213432075       -1.1770592492        0.0780735397
 S          2.7610604579        0.3985244502       -0.4214343786
 O          1.7535554156        0.9741142774        0.4412459894
 O          2.4803465319        0.3849219948       -1.8346001050
 C          4.3356477446        1.1906530673       -0.1400897329
 C          5.3138887252        1.0982662344       -1.1122074680
 C          6.5483343809        1.6832729606       -0.8780882176
 C          6.7837936159        2.3452846138        0.3178248047
 C          5.7920399267        2.4311268991        1.2834130129
 C          4.5554739087        1.8475392642        1.0559338013
 H          3.7508916684        1.8956732515        1.7722637916
 H          5.9759611622        2.9493455336        2.2106950519
 H          7.7451214975        2.7999712819        0.4972755813
 H          7.3202494374        1.6212078117       -1.6279602209
 H          5.0799446899        0.5816200883       -2.0285008371
 H          3.9543942487       -1.2088568625        0.6501871475
 H          3.2616083897       -2.9129036996        2.0975724972
 H          1.3802391480       -4.2614693208        2.9520901485
 H         -0.8689548539       -4.0034973031        1.9836249929
 C         -1.6429991018       -2.3924108922       -0.0601058520
 H         -2.3614582201       -2.7688132280        0.6822655399
 C         -1.7884315396       -3.2142107382       -1.3248539464
 C         -2.0805264241       -4.6798108555       -1.2143253205
 C         -3.1370136993       -3.7401388341       -1.7109477942
 H         -3.3996235383       -3.7566538270       -2.7577900868
 H         -3.9661698540       -3.5129664542       -1.0566650837
 H         -2.1993489669       -5.0953626147       -0.2254206992
 H         -1.6145994182       -5.3493193184       -1.9206179785
 H         -1.1344072771       -2.8881250730       -2.1231420642
 O         -2.7913381911       -0.8982502048        1.9874777615
