  62
        -98.94121508
 C         -2.5312945506       -0.2654042109       -0.0214440102
 C         -2.1245249804       -1.2329048308       -0.9668290302
 C         -1.4478580701       -2.4332256306       -0.4443282003
 C         -1.2680819300       -2.5589033606        0.8838886597
 C         -0.6466697097       -3.6629050305        1.7152966896
 C          0.0442701506       -4.8442572603        1.0421763796
 C          1.3941286705       -4.5057802000        0.4051347895
 H          2.1282380505       -4.3849387898        1.2054927294
 H          1.7090508606       -5.3493178799       -0.2126330106
 C          1.4319231401       -3.2319476199       -0.4362524305
 H          2.4678335700       -3.0575874297       -0.7429546106
 H          1.1395371799       -2.3703744200        0.1683888695
 C          0.5824970100       -3.2527412601       -1.7045621104
 H          0.9105037302       -4.0657044600       -2.3568483505
 H          0.7608767497       -2.3063150701       -2.2244826704
 C         -0.9304520499       -3.3888175805       -1.4816213403
 H         -1.4333410801       -3.1233932106       -2.4168330403
 H         -1.2003778797       -4.4148653006       -1.2440004803
 H         -0.6256176394       -5.3026038905        0.3203823796
 H          0.2259972708       -5.5888970403        1.8217670695
 H         -1.4580310695       -4.0437504207        2.3453352597
 H          0.0598024203       -3.1671280403        2.3890076396
 O         -1.7159975602       -1.6141242408        1.7625800098
 C         -2.2900405505       -0.4294145409        1.3407282098
 O         -2.5578327106        0.3672619990        2.2616639699
 O         -2.3195630706       -1.1000638908       -2.2073325302
 C         -3.0886669710        1.0603728989       -0.5118990201
 C         -2.0844362612        2.1327753992       -0.1627405001
 C         -2.3979323815        3.3224025491        0.4799480699
 C         -1.3931303117        4.2065875093        0.8370847399
 C         -0.0650413516        3.9165499397        0.5847646498
 C          0.2556680886        2.7368926298       -0.0789247203
 C         -0.7543533912        1.8776929395       -0.4724449102
 H         -0.4937200310        0.9667382796       -0.9919735403
 N          1.5885116787        2.3910150901       -0.3652845004
 S          1.9735941591        0.7421503202       -0.3191728004
 O          1.6911174792        0.1717796402       -1.6119562304
 O          1.3527793693        0.1131877400        0.8245781596
 C          3.7400586591        0.8373518706       -0.0913212305
 C          4.2716407292        0.6917593307        1.1757806094
 C          5.6427711592        0.8062303011        1.3451444293
 C          6.4538697491        1.0665550213        0.2508722493
 C          5.9059708689        1.2084835612       -1.0155484907
 C          4.5362784990        1.0934900109       -1.1918155006
 H          4.0647079589        1.1861054508       -2.1561813706
 H          6.5397688988        1.4076778814       -1.8644716007
 H          7.5200724491        1.1567104816        0.3858075992
 H          6.0713085193        0.6921308411        2.3277802293
 H          3.6012672393        0.4835297205        1.9945098395
 H          2.2576048786        2.9459588203        0.1511289196
 H          0.7167613082        4.5916174599        0.8980579198
 H         -1.6480141919        5.1251415593        1.3437863499
 H         -3.4241924215        3.5490328888        0.7184986900
 H         -3.1373613910        0.9725340690       -1.6077459301
 C         -4.4784921610        1.3198697486        0.0249331400
 C         -5.4255044513        2.1985856784       -0.7352613299
 C         -5.6536585509        0.7187093583       -0.6841201599
 H         -6.4736659008        0.3408423581       -0.0924074499
 H         -5.4514045108        0.1371673884       -1.5718033399
 H         -6.0941471514        2.8379636582       -0.1791205798
 H         -5.0749384715        2.6246243085       -1.6631241999
 H         -4.5069745809        1.3470777686        1.1081592900
