  62
        -98.94453129
 C          1.2753071458        1.7687506080       -0.6878590278
 C          2.4670661492        1.6457461441        0.0731582898
 C          3.3968302074        0.5886877366       -0.3325542140
 C          3.1131522549       -0.1675990572       -1.4078385569
 C          3.9381899704       -1.3107800601       -1.9313410413
 C          3.6426812615       -2.6383329448       -1.2190645332
 C          4.2050919822       -2.7500264315        0.1987788454
 H          4.1341258125       -3.8004635223        0.4883305672
 H          5.2626066493       -2.4819813303        0.1940360347
 C          3.4596402977       -1.9037660789        1.2407358812
 H          2.4768424438       -1.6279589205        0.8482633811
 H          3.2796453937       -2.5059854000        2.1349046865
 C          4.2028934657       -0.6437053993        1.6877576106
 H          3.5612778993       -0.1010162479        2.3870525840
 H          5.1154673272       -0.9281539204        2.2170335401
 C          4.5769434301        0.3144166338        0.5490251352
 H          5.4024633221       -0.0946316435       -0.0328771878
 H          4.8923445486        1.2633318626        0.9899905200
 H          2.5594206269       -2.7852774733       -1.1880764311
 H          4.0727671975       -3.4401147071       -1.8243390414
 H          4.9993637641       -1.0750449953       -1.8468636360
 H          3.6868149279       -1.4220779964       -2.9883320734
 O          2.0063246235        0.0349266390       -2.1637520556
 C          1.0230076148        0.9459996026       -1.7862040113
 O          0.0217088328        0.9187004603       -2.5254541548
 O          2.7298068576        2.3844399997        1.0607136541
 C          0.2391202841        2.7297474539       -0.1304874822
 C         -0.4617550160        2.0699534478        1.0348619033
 C         -0.8184683545        2.7811401943        2.1742336608
 C         -1.4331475803        2.1381388050        3.2350067017
 C         -1.6871102347        0.7791307641        3.1900345151
 C         -1.3176712755        0.0544674848        2.0607054424
 C         -0.7325069586        0.7107670909        0.9892376813
 H         -0.4393657589        0.1413821290        0.1233307707
 N         -1.4934207907       -1.3296147155        2.0089561440
 S         -1.4702801509       -2.2397228017        0.6137304557
 O         -1.8106114371       -3.5691564741        1.0752045253
 O         -0.2046250668       -2.1110470831       -0.0627091894
 C         -2.8204723967       -1.6143933020       -0.3687409345
 C         -4.0957022419       -1.9144465287        0.0751645176
 C         -5.1863165372       -1.4423796985       -0.6342248087
 C         -4.9860885545       -0.6792385179       -1.7755121308
 C         -3.7026634317       -0.3912179315       -2.2094056384
 C         -2.6043197326       -0.8586433120       -1.5017713722
 H         -1.6008556811       -0.6290851366       -1.8261974892
 H         -3.5362288614        0.2002643421       -3.0953419308
 H         -5.8334188719       -0.3092520206       -2.3308728432
 H         -6.1853485636       -1.6695282075       -0.2986898406
 H         -4.2067200605       -2.5271935938        0.9549327316
 H         -2.0221001943       -1.7484559310        2.7570383411
 H         -2.1449876621        0.2763192100        4.0277049632
 H         -1.7061995128        2.6997847243        4.1154376367
 H         -0.5879038509        3.8341979810        2.2387039735
 H          0.8127142331        3.5794540860        0.2747912401
 C         -0.7298272606        3.2794909485       -1.1643255984
 C         -2.1383808035        2.7917669703       -1.2957904506
 C         -1.8713597962        4.1604100071       -0.7499965915
 H         -2.1059559176        5.0163756044       -1.3642720534
 H         -2.0306785433        4.3155355847        0.3056396669
 H         -2.5419267767        2.6943731724       -2.2911972285
 H         -2.4735857668        2.0231889843       -0.6158356018
 H         -0.2252779087        3.5406531331       -2.0883100030
