  62
        -98.94496325
 C         -1.8608662251       -0.4025232277        0.0415679277
 C         -2.9316029568       -0.5120835667        0.9697114120
 C         -4.0848499500        0.3640364812        0.7445712877
 C         -4.0716437081        1.2280358673       -0.2861269234
 C         -5.1566946876        2.2097918903       -0.6358328825
 C         -6.2971693893        1.6108692074       -1.4704175430
 C         -7.2348202419        0.6712368796       -0.7111611074
 H         -7.5881865083        1.1660745921        0.1940535719
 H         -8.1040638358        0.5017121310       -1.3497362582
 C         -6.6151139390       -0.6861180195       -0.3504639094
 H         -7.3194282826       -1.4843036268       -0.5953283488
 H         -5.7214395882       -0.8509706535       -0.9567184413
 C         -6.2473760276       -0.8433052510        1.1250254630
 H         -7.1535735124       -0.8126966265        1.7340043532
 H         -5.7838478205       -1.8237721158        1.2601740719
 C         -5.2711685098        0.2180989991        1.6489184838
 H         -5.7811570317        1.1744328516        1.7637796557
 H         -4.9059326866       -0.1038804422        2.6271537995
 H         -5.8657468680        1.0836641216       -2.3244791465
 H         -6.8881791021        2.4437216421       -1.8585372816
 H         -5.5629574692        2.6463638902        0.2771463172
 H         -4.6827015536        3.0025444007       -1.2188239676
 O         -3.0215704042        1.3202971255       -1.1413544839
 C         -1.9032810538        0.5075614491       -1.0144160028
 O         -1.0467984195        0.7133882709       -1.8993451402
 H          0.7899783756        0.7375169073       -0.6913529405
 C          1.1336172455        0.4200533067        0.2818565352
 C          0.4751099125       -0.6142485365        0.9319707833
 C          0.9234772460       -1.0001905337        2.1894548684
 C          2.0031691888       -0.3660889929        2.7801514188
 C          2.6576366048        0.6633786463        2.1284304395
 C          2.2112110112        1.0603442358        0.8745524091
 N          2.8843648965        2.0971471369        0.1941716613
 S          4.5137495394        1.8137171306       -0.0867457353
 O          5.2579045143        2.0940419684        1.1156647733
 O          4.8581811931        2.6087198612       -1.2440416320
 C          4.5973856062        0.0720211819       -0.4624756793
 C          5.1145807641       -0.8091492960        0.4648643490
 C          5.0952309088       -2.1654750353        0.1820061482
 C          4.5572002082       -2.6143473695       -1.0137796971
 C          4.0433887020       -1.7156628368       -1.9361035731
 C          4.0583600987       -0.3589422685       -1.6583364559
 H          3.6683576187        0.3675781585       -2.3536292278
 H          3.6269435088       -2.0648361497       -2.8675647205
 H          4.5384014579       -3.6710046246       -1.2296654997
 H          5.4944868251       -2.8671549752        0.8963119598
 H          5.5223820940       -0.4174412174        1.3820746860
 H          2.4252096191        2.3575813445       -0.6675231932
 H          3.5050368932        1.1657865325        2.5663605320
 H          2.3395777145       -0.6773293889        3.7572133398
 H          0.4122373601       -1.7973773385        2.7088301586
 C         -0.6765957811       -1.3279979911        0.2655387808
 H         -1.0433240007       -2.0916117331        0.9643429349
 C         -0.2017720269       -2.0210315078       -0.9978727292
 C          0.6166422664       -3.2696924858       -0.8739396302
 C         -0.7927274293       -3.3437618628       -1.3783210923
 H         -0.9595385936       -3.5505868443       -2.4248542442
 H         -1.5477222745       -3.7600683517       -0.7273085133
 H          1.4230944563       -3.4263584938       -1.5727672531
 H          0.8188881068       -3.6366229976        0.1205776272
 H          0.0402118255       -1.3358323759       -1.7995084221
 O         -2.9213337540       -1.3119575203        1.9423602346
