  62
        -98.93952554
 C          2.5268320605        1.2498856088        0.3310077482
 C          2.5378589399        0.4077025787       -0.8048080017
 C          3.3397985795       -0.8253234816       -0.6998980719
 C          4.0037875898       -1.0901848517        0.4409551279
 C          4.9299756796       -2.2297792620        0.8119572176
 C          4.9646824989       -3.5098145320       -0.0191066823
 C          3.6817697586       -4.3395475616        0.0263977182
 H          3.7853540681       -5.1682840817       -0.6771619618
 H          3.5766297688       -4.7644547715        1.0278329783
 C          2.3935176988       -3.5820807312       -0.2880641414
 H          1.5607179086       -4.2878373710       -0.2181534610
 H          2.2227744693       -2.8153203611        0.4711792186
 C          2.3342597985       -2.9328521413       -1.6698186914
 H          1.3127425785       -2.5685095110       -1.8166447311
 H          2.5330588280       -3.6839935714       -2.4368120414
 C          3.2876558688       -1.7441384116       -1.8857471418
 H          2.8991445187       -1.1494585916       -2.7176618717
 H          4.2845935086       -2.0805100820       -2.1599147822
 H          5.7689421888       -4.1253652223        0.3927242675
 H          5.2349390886       -3.2849115522       -1.0464840924
 H          5.9379205497       -1.8005814223        0.8263721772
 H          4.6883283299       -2.4830502318        1.8490604777
 O          3.9591206905       -0.2444031716        1.5127398778
 C          3.2168495408        0.9239708886        1.4954524380
 O          3.2463650814        1.5689604587        2.5635729879
 O          1.9131078896        0.6718084588       -1.8648381715
 C          1.7183817109        2.5341821290        0.3124152684
 C          0.2735755207        2.2307388395       -0.0049144211
 C         -0.4776792794        2.9576462696       -0.9187736708
 C         -1.7944543196        2.6146228101       -1.1732708404
 C         -2.3921636097        1.5520287203       -0.5213573601
 C         -1.6523863696        0.8223039901        0.4002230697
 C         -0.3354258994        1.1709072697        0.6557425892
 H          0.2409630607        0.5979000196        1.3731276191
 N         -2.2530115697       -0.2490231496        1.0851277900
 S         -3.0865424304       -1.4017939594        0.1917160304
 O         -3.0547645105       -2.5982487894        1.0053166405
 O         -2.5654247609       -1.5224716697       -1.1497337198
 C         -4.7523163902       -0.7734837889        0.1501605909
 C         -5.3902659306       -0.5907309688       -1.0610062388
 C         -6.6879878204       -0.1029447184       -1.0679652384
 C         -7.3214639099        0.1903301019        0.1298791318
 C         -6.6678609095       -0.0019364082        1.3380799216
 C         -5.3710259797       -0.4898304086        1.3520127311
 H         -4.8290067494       -0.6557310987        2.2680096110
 H         -7.1636514391        0.2272522620        2.2675574117
 H         -8.3304492698        0.5713061623        0.1219199621
 H         -7.1975429607        0.0465109517       -2.0062788282
 H         -4.8553775109       -0.8270267390       -1.9672395490
 H         -1.6386037496       -0.6975092798        1.7493340598
 H         -3.4141787498        1.2768911806       -0.7240954897
 H         -2.3635490496        3.1829222502       -1.8930419502
 H         -0.0289865993        3.7860464195       -1.4416654211
 H          1.7669894514        2.9400856891        1.3337745484
 C          2.3510329809        3.5291910188       -0.6385140519
 C          2.2332412815        5.0011019688       -0.3845934220
 C          3.5449600613        4.3073810884       -0.1764297924
 H          4.3451028712        4.4893977681       -0.8780444127
 H          3.8830625717        4.1384621784        0.8358887775
 H          2.1358754214        5.6642866988       -1.2308187720
 H          1.6837752319        5.3155098391        0.4897037682
 H          2.3475730605        3.1809577687       -1.6650506719
