  62
        -98.94008545
 C         -2.6289506227       -1.1460938514        0.2723586617
 C         -2.5728356670       -0.3080190248       -0.8690958052
 C         -3.4346149580        0.8848321893       -0.8303541389
 C         -4.1998258089        1.1175451244        0.2504940755
 C         -5.0738384695        2.3223659094        0.4419788578
 C         -4.3136817729        3.4494343028        1.1554093350
 C         -2.9426566678        3.7506617954        0.5493424789
 H         -2.5125062358        4.5798191977        1.1155577553
 H         -2.2887910599        2.8878435589        0.6985512231
 C         -2.9725096616        4.1104674090       -0.9427996739
 H         -3.9834325644        4.3986446589       -1.2332543892
 H         -2.3287525829        4.9772759147       -1.1060270399
 C         -2.4740143081        3.0031914005       -1.8735119614
 H         -1.4996737016        2.6450972726       -1.5307216537
 H         -2.3324750650        3.4340663318       -2.8680906652
 C         -3.4035624349        1.7927806143       -2.0274988282
 H         -4.4099948462        2.1303959353       -2.2826148338
 H         -3.0226869027        1.1861371985       -2.8541960939
 H         -4.9294587720        4.3502797099        1.1319231016
 H         -4.1705973621        3.1632124083        2.2001968510
 H         -5.4284523669        2.6656871150       -0.5278053574
 H         -5.9316557605        2.0326834642        1.0512465037
 O         -4.2183489341        0.2969769701        1.3327885820
 C         -3.4191369774       -0.8339660858        1.3808589884
 O         -3.4938881916       -1.4668862930        2.4538799064
 O         -1.8459603273       -0.5286966134       -1.8704470185
 C         -1.7616807718       -2.3881421112        0.3874467849
 C         -0.3516976594       -2.0704100058       -0.0499711909
 C          0.3315096302       -2.7705710001       -1.0344454961
 C          1.6277624086       -2.4197038648       -1.3706078148
 C          2.2677730787       -1.3690829441       -0.7404424974
 C          1.5959260855       -0.6643497232        0.2502007735
 C          0.3031090615       -1.0263326575        0.5934297685
 H         -0.2204683501       -0.4772393961        1.3683386435
 N          2.2301961925        0.4191027278        0.8841704614
 S          3.7690598936        0.1830990654        1.5121337676
 O          3.9719088169       -1.1903172207        1.9120995292
 O          3.9094179149        1.1814120100        2.5501060261
 C          4.8542420564        0.5949269503        0.1624952088
 C          4.7121627506        1.8334837045       -0.4318427033
 C          5.5561768633        2.1747022601       -1.4764636949
 C          6.5246263188        1.2784228528       -1.9039652439
 C          6.6567139040        0.0402219570       -1.2943640980
 C          5.8146153215       -0.3079793253       -0.2495979636
 H          5.8761531854       -1.2613684916        0.2505391172
 H          7.4101638508       -0.6548826463       -1.6283174442
 H          7.1802522105        1.5470473055       -2.7171588989
 H          5.4558625482        3.1364277251       -1.9533509316
 H          3.9490253541        2.5014378280       -0.0683423604
 H          1.6447138910        0.8988845609        1.5522651995
 H          3.2734135559       -1.0879882968       -1.0073547253
 H          2.1444895902       -2.9686142107       -2.1430681730
 H         -0.1570774098       -3.5769744010       -1.5556802148
 H         -1.7294189227       -2.6113606383        1.4676095871
 C         -2.3420776857       -3.6220232275       -0.2875699282
 C         -3.8209403020       -3.7741134070       -0.4795891895
 C         -2.9273054394       -3.5818245519       -1.6659727700
 H         -2.7573174908       -4.4256771959       -2.3186447632
 H         -2.9398127431       -2.6310392601       -2.1740365969
 H         -4.2606626083       -4.7464206704       -0.3148603352
 H         -4.4532495258       -2.9530146027       -0.1736327667
 H         -1.8021570510       -4.5229571701       -0.0122314648
