  62
        -98.93753719
 C          1.9991509141        0.8569149277        0.4882348989
 C          2.0623227073        0.1619396934       -0.7413606045
 C          2.2537181177       -1.2961490318       -0.6580541144
 C          2.3186511263       -1.8795781792        0.5509485552
 C          2.5448520633       -3.3352113869        0.8537035256
 C          4.0408777560       -3.6227368213        1.0674601662
 C          4.8248551844       -3.9401579786       -0.2053858291
 H          5.8809441384       -3.9916364473        0.0688177225
 H          4.5314785848       -4.9268931155       -0.5693642451
 C          4.6612749631       -2.9303309892       -1.3442148046
 H          5.5131834042       -3.0440609230       -2.0172881464
 H          4.6973065261       -1.9155584236       -0.9439269717
 C          3.3658036668       -3.1285182741       -2.1453320283
 H          2.9285843785       -4.0916804673       -1.8830652637
 H          3.6026747761       -3.1748800289       -3.2102199849
 C          2.3140467164       -2.0220870426       -1.9742590060
 H          2.4877838651       -1.2348077830       -2.7148358735
 H          1.3201791587       -2.4323607291       -2.1839273198
 H          4.4793596803       -2.7533257213        1.5639877624
 H          4.1401105729       -4.4715560939        1.7470568337
 H          2.0110067215       -3.5436379715        1.7834893194
 H          2.1298291583       -3.9585743680        0.0672898523
 O          2.2375888257       -1.1734314738        1.7136606557
 C          2.0633938221        0.1974890359        1.7132803046
 O          1.9872048570        0.7100534811        2.8509367625
 H         -0.4830124998        0.8900106881        0.5221690783
 C         -0.6089844357        1.7866730455       -0.0676309958
 C          0.4521267942        2.6729496565       -0.2008828974
 C          0.2593831301        3.8293909885       -0.9458891004
 C         -0.9623534701        4.0769887596       -1.5484912898
 C         -2.0083595544        3.1814804528       -1.4302005027
 C         -1.8234313031        2.0172368876       -0.6903218678
 N         -2.8481088727        1.0605705357       -0.6062816298
 S         -2.7931731037       -0.1928551318        0.5098982820
 O         -2.7348802549        0.3251472954        1.8606078924
 O         -1.7550432263       -1.1185016224        0.1292516266
 C         -4.3901886232       -0.9260784358        0.2084428399
 C         -4.5456386159       -1.7256983953       -0.9083371033
 C         -5.7889083484       -2.2794012726       -1.1686698552
 C         -6.8507275372       -2.0261351465       -0.3126587745
 C         -6.6793593700       -1.2238023400        0.8051825296
 C         -5.4382752525       -0.6659381656        1.0705589236
 H         -5.2546314897       -0.0431383901        1.9312294824
 H         -7.5053738435       -1.0314197489        1.4706366404
 H         -7.8170610179       -2.4592724159       -0.5169596366
 H         -5.9245979343       -2.9058897673       -2.0354314954
 H         -3.6886755722       -1.9005771436       -1.5380655989
 H         -3.7763043142        1.4408946401       -0.7231267854
 H         -2.9552564203        3.3701133311       -1.9116199691
 H         -1.0997826497        4.9804863729       -2.1229527686
 H          1.0663635516        4.5353262441       -1.0558709167
 C          1.7530298161        2.3532187952        0.4986752467
 H          1.6460901667        2.6357409842        1.5576436134
 C          2.9402796219        3.0912891968       -0.0872342653
 C          3.3301158736        4.4411972992        0.4334789171
 C          4.1763014009        3.2448663131        0.7456640476
 H          5.1380936083        3.1496733924        0.2646545158
 H          4.1475251271        2.8430395094        1.7485438805
 H          2.7366016920        4.8602265336        1.2321621568
 H          3.7159653275        5.1705906848       -0.2627005028
 H          3.0699262415        2.8897344061       -1.1442529686
 O          1.9686813795        0.7317953871       -1.8610336442
