  62
        -98.94411643
 C         -1.9977548981       -0.8640095656        0.2666090703
 C         -2.3457763088        0.3718384170       -0.3304226583
 C         -3.6557150484        0.9225165433        0.0514017591
 C         -4.4175241289        0.2678684659        0.9456657669
 C         -5.7894653984        0.6913684021        1.3816028173
 C         -6.8731747723        0.0584205104        0.4973917035
 C         -6.6142490305        0.2106605716       -1.0014902598
 H         -5.7225474404       -0.3607923468       -1.2689192721
 H         -7.4571731314       -0.2455569469       -1.5250435772
 C         -6.4449020453        1.6619096325       -1.4722890598
 H         -6.8499655696        2.3441346130       -0.7240050564
 H         -7.0246230576        1.8034077872       -2.3869262548
 C         -5.0031053677        2.0603315681       -1.7930147186
 H         -4.5632464288        1.3262500580       -2.4728215361
 H         -5.0243199146        3.0197339255       -2.3169387438
 C         -4.0702069545        2.2193214150       -0.5856464210
 H         -3.1471633184        2.6891522753       -0.9379945655
 H         -4.5307125507        2.8809725805        0.1508468027
 H         -7.8332938338        0.5116237638        0.7507546310
 H         -6.9291757485       -1.0078411290        0.7284500683
 H         -5.9380523686        0.3656371518        2.4125275590
 H         -5.8598824966        1.7766188255        1.3407116020
 O         -4.0353062107       -0.8976501372        1.5258284982
 C         -2.8294725673       -1.4917211936        1.1996252885
 O         -2.6112585279       -2.5649350114        1.7957195094
 H          0.7132505596        0.6283538845       -0.8327464049
 C          1.0554887804        0.2532942068        0.1190542425
 C          0.4407759832       -0.8578012890        0.6775620121
 C          0.8722318696       -1.3024914175        1.9228781799
 C          1.8914163504       -0.6491139503        2.5924578508
 C          2.5006284654        0.4604816104        2.0339878963
 C          2.0708154302        0.9156039590        0.7944388663
 N          2.6939790168        2.0392566057        0.2170257310
 S          4.3596753200        1.9532672710        0.0594941917
 O          4.9782617937        2.2650450179        1.3238272275
 O          4.6927214859        2.8296242564       -1.0411525110
 C          4.6744155951        0.2499309262       -0.3675847166
 C          5.2577342678       -0.5959276061        0.5532087647
 C          5.4226984724       -1.9320235630        0.2244741219
 C          4.9998987470       -2.3966723714       -1.0109041090
 C          4.4193170468       -1.5328696198       -1.9269377687
 C          4.2500205902       -0.1970245510       -1.6033293837
 H          3.8062684948        0.5033038559       -2.2927658469
 H          4.0948049479       -1.8971549151       -2.8883627723
 H          5.1235187474       -3.4379247897       -1.2635776857
 H          5.8753461655       -2.6058007403        0.9339704198
 H          5.5719961793       -0.1937409699        1.5022289355
 H          2.2652456897        2.3274340618       -0.6508061678
 H          3.2961811956        0.9845113570        2.5387845846
 H          2.2151675679       -1.0066959191        3.5580267109
 H          0.3889571131       -2.1611506884        2.3670419678
 C         -0.6843459328       -1.5727137013       -0.0310445107
 H         -0.7793562207       -2.5699158200        0.4180266718
 C         -0.4295157160       -1.7335278586       -1.5168500728
 C          0.6678164605       -2.6480893682       -1.9688170903
 C         -0.7647449944       -3.0326302594       -2.1825885246
 H         -1.1625160537       -3.0091300824       -3.1862813907
 H         -1.1810289004       -3.8175793450       -1.5680223490
 H          1.2269897757       -3.1695298396       -1.2069635716
 H          1.2546782782       -2.3605972784       -2.8272338916
 H         -0.5998255021       -0.8298120064       -2.0868437404
 O         -1.6193956752        0.9966622509       -1.1484582597
