  62
        -98.94005964
 C         -2.6790314590       -1.0472479151        0.2235387549
 C         -2.3603672858       -0.2521851522       -0.9031508475
 C         -2.8479868585        1.1371415577       -0.8783267903
 C         -3.6084718062        1.5575847641        0.1500450102
 C         -4.2651974942        2.8989245632        0.3971996934
 C         -3.6937481092        4.1677658402       -0.2346282199
 C         -2.2616440037        4.5114043590        0.1727117531
 H         -1.9596252120        5.4047757348       -0.3783788238
 H         -2.2456264745        4.7566087094        1.2377057160
 C         -1.2252909340        3.4141676447       -0.0658561355
 H         -0.2391845209        3.8094505568        0.1973042033
 H         -1.4141928797        2.5764625305        0.6102787877
 C         -1.1404623844        2.8835944161       -1.4974109714
 H         -1.0071616319        3.7179399650       -2.1888108292
 H         -0.2441031911        2.2579173218       -1.5534040691
 C         -2.3390428985        2.0342197926       -1.9668866854
 H         -1.9933752258        1.3810899811       -2.7729830527
 H         -3.1386230665        2.6554612249       -2.3639671239
 H         -3.7685065176        4.1188706744       -1.3168817028
 H         -4.3353731606        4.9905649529        0.0920980743
 H         -5.3074003535        2.7961902088        0.0754566936
 H         -4.2845047470        3.0189084104        1.4845784237
 O         -3.9612540907        0.7245456469        1.1727722676
 C         -3.4649451740       -0.5663051826        1.2663246646
 O         -3.7889625633       -1.1687362159        2.3105117361
 O         -1.6920428213       -0.6766875436       -1.8804409997
 C         -2.0848639742       -2.4384294218        0.3481773533
 C         -0.5838012181       -2.3429639584        0.2046713171
 C          0.1701898074       -3.2136985918       -0.5703686608
 C          1.5368928761       -3.0334681251       -0.6997979617
 C          2.1802886420       -1.9874993441       -0.0643042813
 C          1.4377271970       -1.1191577350        0.7250187756
 C          0.0738608180       -1.3123453799        0.8655090207
 H         -0.5008153718       -0.6261730787        1.4780196814
 N          2.0834439722       -0.0421568106        1.3708609106
 S          2.7639703835        1.1131962057        0.3483988233
 O          2.8157947609        2.3288453215        1.1322783236
 O          2.0651086556        1.1909113444       -0.9125378563
 C          4.4189387688        0.5078622062        0.0963258286
 C          4.8434567487        0.1771353035       -1.1754046330
 C          6.1330058866       -0.3020806582       -1.3471434495
 C          6.9694973255       -0.4410261782       -0.2500891785
 C          6.5281627666       -0.1019325245        1.0205281341
 C          5.2407185610        0.3784982106        1.1989592643
 H          4.8582461682        0.6574202056        2.1665597714
 H          7.1817969667       -0.2113874696        1.8708312879
 H          7.9714924971       -0.8161338129       -0.3863029121
 H          6.4775637450       -0.5663094611       -2.3340087749
 H          4.1538675428        0.2956366231       -1.9960275427
 H          1.4869030562        0.4258446077        2.0393298245
 H          3.2415608426       -1.8351005393       -0.1750901993
 H          2.1077491034       -3.7131788139       -1.3137754877
 H         -0.3154732621       -4.0246736966       -1.0878977725
 H         -2.3184153483       -2.7837880903        1.3662082570
 C         -2.7274576628       -3.3813605240       -0.6474165344
 C         -2.8524671524       -4.8416480106       -0.3350510326
 C         -4.0682327359       -3.9659204994       -0.3233200554
 H         -4.7906577114       -4.0709542366       -1.1186881314
 H         -4.5041192062       -3.7021774474        0.6295423026
 H         -2.7440115665       -5.5523813744       -1.1403381010
 H         -2.4681155711       -5.1851414284        0.6134150001
 H         -2.5434815908       -3.0866807310       -1.6742553640
