  62
        -98.93617121
 C         -2.4831578338       -0.9217158987        0.5797927417
 C         -2.8718283118        0.3119581302        1.1635479850
 C         -4.2691898641        0.7133540724        0.9738344310
 C         -5.1055474016       -0.0941554477        0.2973125624
 C         -6.5660954791        0.1578611204        0.0377125299
 C         -6.8378191072        1.0520987228       -1.1797248618
 C         -6.4993016159        2.5310715014       -0.9888675411
 H         -6.9390939983        3.0713840533       -1.8294898598
 H         -6.9775022072        2.8977390460       -0.0800984466
 C         -4.9954175381        2.8356854343       -0.9400499123
 H         -4.7769220502        3.6964185843       -1.5761102724
 H         -4.4372901903        1.9888071293       -1.3462063882
 C         -4.4576590897        3.1563521043        0.4547059964
 H         -4.9107727272        4.0809420163        0.8193615310
 H         -3.3790308265        3.3166860512        0.3775842743
 C         -4.6974468240        2.0525237360        1.4930362039
 H         -4.0932656194        2.2746322300        2.3761743536
 H         -5.7476697243        2.0299509110        1.7834835605
 H         -7.9024423464        0.9720362748       -1.4111225008
 H         -6.2812975581        0.6581806045       -2.0331560529
 H         -7.0246133794        0.5977155089        0.9237905240
 H         -7.0220575465       -0.8178778046       -0.1428895759
 O         -4.7042581513       -1.2799584063       -0.2277717297
 C         -3.3858268860       -1.7156910146       -0.1299044571
 O         -3.1806931614       -2.7995974973       -0.7042441484
 O         -2.0834082774        1.0412150947        1.8247602139
 C         -1.0328955058       -1.3275494141        0.7639914636
 C         -0.1646616646       -0.8301567867       -0.3633573410
 C         -0.5427276493       -0.9750462846       -1.6945905655
 C          0.2879493806       -0.5363923781       -2.7096707519
 C          1.5155958287        0.0330723236       -2.4205984513
 C          1.8995314348        0.1878963693       -1.0938564620
 C          1.0525536010       -0.2308621578       -0.0768863119
 H          1.3577615370       -0.0872271535        0.9493237774
 N          3.1317024209        0.7705027052       -0.7605073597
 S          3.9530689402        0.1424642941        0.5772046557
 O          3.8350567761       -1.2975968961        0.5911465828
 O          3.5056298980        0.8304401503        1.7620071725
 C          5.6255003509        0.6257464599        0.1932160960
 C          6.4560217416       -0.2721360481       -0.4506536156
 C          7.7448051797        0.1213928250       -0.7751304598
 C          8.1775529279        1.3994279874       -0.4546285359
 C          7.3325454353        2.2890121177        0.1924127378
 C          6.0430090338        1.9019713799        0.5207946857
 H          5.3539761738        2.5545315633        1.0314052553
 H          7.6736435003        3.2805711829        0.4427308325
 H          9.1809180964        1.7032337788       -0.7080319383
 H          8.4051797763       -0.5688671547       -1.2748769457
 H          6.0793662418       -1.2580210642       -0.6713874159
 H          3.7408582679        0.8924976765       -1.5579117997
 H          2.1682786383        0.3609945977       -3.2153395900
 H         -0.0176124149       -0.6542838326       -3.7385270395
 H         -1.4869213540       -1.4462766875       -1.9234983744
 H         -0.7075619574       -0.8012716777        1.6768664110
 C         -0.8447494329       -2.8172099397        1.0170648034
 C         -0.2665863645       -3.7619436267        0.0114134566
 C          0.5303817629       -3.3825194826        1.2213080298
 H          0.6726117686       -4.1181732050        1.9988689264
 H          1.3764260345       -2.7237361648        1.0828366545
 H         -0.6923995238       -4.7518530469       -0.0462876759
 H          0.0374336994       -3.3646976797       -0.9440132577
 H         -1.6304940816       -3.2173546146        1.6507062809
