  62
        -98.93782867
 C         -1.6990406654       -1.3982132095        0.3637517398
 C         -1.2999274081       -0.3099817898       -0.4484752828
 C         -1.9663406096        0.9811664359       -0.1968973439
 C         -2.8629975904        1.0743927530        0.7985248500
 C         -3.6774952953        2.2722741259        1.2039525678
 C         -5.0299106370        2.2962943909        0.4707947241
 C         -5.0178216319        3.0059586800       -0.8822516514
 H         -5.9983525773        2.8518018442       -1.3383627496
 H         -4.8945673109        4.0790768069       -0.7225734421
 C         -3.9404517331        2.5282515342       -1.8583501351
 H         -3.8851178682        1.4383802335       -1.8374590506
 H         -4.2471569461        2.8188104066       -2.8648071949
 C         -2.5544654108        3.1239979585       -1.5680908828
 H         -2.6532409475        3.9350545177       -0.8472461939
 H         -2.1519044180        3.5689353390       -2.4805166374
 C         -1.5107013617        2.1151059905       -1.0741633203
 H         -1.0415852576        1.6304288513       -1.9366984492
 H         -0.7096288471        2.6432342892       -0.5433447083
 H         -5.3596666724        1.2620873570        0.3421801057
 H         -5.7627946923        2.7953524893        1.1080297584
 H         -3.8628025247        2.1682392732        2.2754650615
 H         -3.1197107511        3.1892852781        1.0380137902
 O         -3.1941833754        0.0096255384        1.5835018365
 C         -2.6071464749       -1.2288655160        1.4093264977
 O         -2.9658159134       -2.0889148390        2.2413245806
 H          0.4587966941       -1.4069371617        1.9445452620
 C          1.0587385846       -1.7857247633        1.1245451050
 C          0.4533505071       -2.5551342368        0.1373096242
 C          1.2375692802       -3.0239823230       -0.9077863736
 C          2.5818924039       -2.6996478118       -0.9782553305
 C          3.1644159090       -1.8837718002       -0.0252689381
 C          2.3902448637       -1.4255393741        1.0319159797
 N          2.9677773342       -0.5068476004        1.9588024051
 S          2.5563992641        1.0793508370        1.5336132414
 O          3.2147876135        1.9253392276        2.5084302041
 O          1.1207484163        1.2503499252        1.4471779524
 C          3.3256044963        1.2584760159       -0.0566853659
 C          4.6513919342        1.6454194960       -0.0980785197
 C          5.2815813183        1.7436159048       -1.3276719460
 C          4.5790405617        1.4480731437       -2.4867182802
 C          3.2501112485        1.0583479618       -2.4253601988
 C          2.6101728407        0.9589968019       -1.1990029708
 H          1.5793128127        0.6470712987       -1.1214058742
 H          2.7021406916        0.8222413867       -3.3233342561
 H          5.0699777711        1.5209479889       -3.4444504362
 H          6.3152471169        2.0457246789       -1.3786083472
 H          5.1517202893        1.8650257100        0.8307820414
 H          2.6426138723       -0.6581144829        2.9055217047
 H          4.1994773489       -1.5902373506       -0.0904908548
 H          3.1757955469       -3.0635252976       -1.8022217242
 H          0.7868723493       -3.6137379433       -1.6890347096
 C         -1.0365986077       -2.7633953248        0.2481805992
 H         -1.2420849106       -3.2595885631        1.2117385476
 C         -1.6135271632       -3.6598752203       -0.8360001218
 C         -3.0392428832       -3.5118765132       -1.2747692667
 C         -1.9262503038       -3.1526420455       -2.2102929794
 H         -1.7372965484       -3.8037917536       -3.0511035785
 H         -1.7365170414       -2.1105660171       -2.4110237105
 H         -3.6112024679       -4.4067593740       -1.4692852013
 H         -3.6170568305       -2.7132549346       -0.8316733565
 H         -1.2389687933       -4.6761540852       -0.7621200747
 O         -0.4326577376       -0.3991658801       -1.3554996590
