  62
        -98.93903719
 C          2.1944512502       -0.9315200831        0.1144379617
 C          3.0672163343       -0.5783062357       -0.9455731688
 C          3.9384920392        0.5950900658       -0.7492686075
 C          3.8425405435        1.2813969071        0.4042551908
 C          4.6425180813        2.4772056064        0.8467763828
 C          6.0642213856        2.1030424655        1.2983314998
 C          6.7794851357        1.0936942361        0.4037471892
 H          7.7189633793        0.8242266873        0.8934205374
 H          6.1776613891        0.1855880761        0.3362323633
 C          7.1114646146        1.5889285639       -1.0017746047
 H          7.6825203052        0.7997070131       -1.4972874933
 H          7.7552092568        2.4683227984       -0.9284428626
 C          5.9149154393        1.9376064850       -1.8889847489
 H          5.4887418478        2.8979824065       -1.6117596988
 H          6.2891639348        2.0481384513       -2.9109707507
 C          4.8245867363        0.8717945670       -1.9398068015
 H          4.1425433084        1.1103235293       -2.7650327213
 H          5.2757333622       -0.0900729054       -2.2085109097
 H          5.9958227796        1.6694612981        2.2990296834
 H          6.6561085221        3.0172464292        1.3667755814
 H          4.6680597502        3.2208102024        0.0556664026
 H          4.1109646038        2.9139516782        1.6952698986
 O          2.9772510692        0.9174354343        1.3914817618
 C          2.1396359320       -0.1775831295        1.2856064133
 O          1.4234905516       -0.3526288012        2.2932944614
 H         -0.5694540461       -1.0152350067        1.4967765105
 C         -0.9274969489       -1.1472363069        0.4868229212
 C         -0.0908502161       -1.7143116469       -0.4639469382
 C         -0.5540485986       -1.8346013275       -1.7693547770
 C         -1.8239526284       -1.4026298344       -2.1090602112
 C         -2.6553220524       -0.8394855586       -1.1573581140
 C         -2.1956838171       -0.7005873700        0.1455539006
 N         -3.0260061915       -0.1158303817        1.1201043495
 S         -3.7043619265        1.3780213486        0.7580118888
 O         -2.8898865377        2.1207941640       -0.1770117701
 O         -3.9537914322        2.0072262195        2.0366995836
 C         -5.2645553306        0.9540574316        0.0101133405
 C         -6.1302887780        0.1518604101        0.7277014084
 C         -7.3489007768       -0.1897716386        0.1636537268
 C         -7.6807051894        0.2760997543       -1.1000133214
 C         -6.8027018802        1.0843769891       -1.8057148454
 C         -5.5814194452        1.4291880723       -1.2473660900
 H         -4.8641801726        2.0497317148       -1.7608572295
 H         -7.0622992453        1.4458870682       -2.7877293024
 H         -8.6292549267        0.0076183916       -1.5375312012
 H         -8.0344067342       -0.8176517339        0.7096646828
 H         -5.8344009629       -0.1857356005        1.7068669048
 H         -2.5980948442       -0.0913357292        2.0353669425
 H         -3.6434659698       -0.4960950846       -1.4164347339
 H         -2.1703088464       -1.5035309984       -3.1263203967
 H          0.0986885061       -2.2529833262       -2.5218289079
 C          1.3091264934       -2.1487149425       -0.1015515906
 H          1.7364482124       -2.6591013992       -0.9749867061
 C          1.3198001249       -3.1105567685        1.0695707346
 C          0.8808457070       -4.5259982727        0.8484133932
 C          2.3266737142       -4.2195146155        1.0959898087
 H          2.7605957669       -4.4974690652        2.0447961472
 H          3.0133921494       -4.2908342060        0.2651091689
 H          0.3186347816       -5.0181165350        1.6269352192
 H          0.5870024995       -4.8058304794       -0.1518410498
 H          1.0720820340       -2.6465458717        2.0152764211
 O          3.1304329529       -1.2300811821       -2.0225356852
