  62
        -98.93706123
 C          2.4760419514        1.3993514909        0.1657324565
 C          2.6008132680        0.4102459439       -0.8388270509
 C          3.4184608542       -0.7623484067       -0.4927260419
 C          3.9964993055       -0.8479788184        0.7177958431
 C          4.8751259401       -1.9619856630        1.2206511051
 C          4.1905163399       -3.3319482091        1.3940313867
 C          4.3351509658       -4.2685245232        0.1881067489
 H          5.2244262642       -3.9823807719       -0.3747750001
 H          4.5067525191       -5.2837519379        0.5513192212
 C          3.1312946367       -4.3329993559       -0.7571370856
 H          2.3551053584       -4.9562645712       -0.3069068013
 H          3.4548129533       -4.8248945856       -1.6771119448
 C          2.4860500285       -2.9933268473       -1.1148135241
 H          1.7911632782       -3.1598897779       -1.9412472978
 H          1.8776769008       -2.6415034349       -0.2766490906
 C          3.4822030785       -1.8794644895       -1.4935639868
 H          4.4938639464       -2.2755086540       -1.5637535474
 H          3.2103085769       -1.4520253312       -2.4606960317
 H          3.1380412056       -3.1842021672        1.6368249905
 H          4.6564007710       -3.8122172087        2.2559005039
 H          5.7314004861       -2.0661353997        0.5507412846
 H          5.2472432226       -1.6240701659        2.1898328662
 O          3.8660955740        0.1312045739        1.6528323090
 C          3.0972215063        1.2545313349        1.4113243968
 O          3.0510470219        2.0539228471        2.3673575707
 H          0.0283004782        1.0591140213       -1.4744930179
 C         -0.4925721412        1.4643384041       -0.6195674271
 C          0.1782827395        2.3195665941        0.2433384567
 C         -0.5003080323        2.8084491897        1.3533299307
 C         -1.8150727027        2.4467637456        1.5909316575
 C         -2.4750100333        1.5831650807        0.7347526291
 C         -1.8015533689        1.0824687222       -0.3713464891
 N         -2.4538913888        0.1715114023       -1.2298936033
 S         -2.9241743874       -1.2771996397       -0.5110996273
 O         -2.0873260542       -1.6001484488        0.6230882308
 O         -2.9619491890       -2.2490528032       -1.5821923021
 C         -4.5883910575       -0.9483587281        0.0305979826
 C         -4.9078033078       -1.0313857856        1.3715584896
 C         -6.2098324743       -0.7667299805        1.7675791461
 C         -7.1635975737       -0.4260440553        0.8206324127
 C         -6.8271136339       -0.3500768160       -0.5229254368
 C         -5.5277857453       -0.6141775757       -0.9253738386
 H         -5.2242509740       -0.5714621370       -1.9579983568
 H         -7.5717968890       -0.0855701970       -1.2562182505
 H         -8.1753844084       -0.2192409264        1.1317714886
 H         -6.4731237473       -0.8260946007        2.8114566794
 H         -4.1308140865       -1.2945741460        2.0716303869
 H         -1.9106567718       -0.0305387730       -2.0587112234
 H         -3.4949143985        1.2878865855        0.9207015643
 H         -2.3290684263        2.8354097287        2.4568257324
 H          0.0187785910        3.4579534356        2.0432605422
 C          1.6315766875        2.6567386348        0.0079600015
 H          1.9536344020        3.3319653514        0.8116822569
 C          1.8372245728        3.3595677810       -1.3190796870
 C          1.4738994823        4.8082928842       -1.4341431938
 C          2.9140543344        4.3936590522       -1.4392825946
 H          3.4680180847        4.4539097960       -2.3639880824
 H          3.5083855224        4.6003105797       -0.5609434025
 H          1.0920822193        5.2992287766       -0.5518252814
 H          1.0360315826        5.1569933045       -2.3566727548
 H          1.6625579663        2.7249660368       -2.1773763405
 O          2.0696087321        0.4746221244       -1.9811684393
