  62
        -98.94432450
 C         -1.5242704994       -0.6743269202        0.2651112499
 C         -2.5769530894       -0.7927824898       -0.6756294801
 C         -3.5100197492        0.3419066404       -0.7326706199
 C         -3.2904544690        1.4373893202        0.0148050203
 C         -4.1360380987        2.6815162004        0.0367892505
 C         -5.3519241388        2.5913089504        0.9693598405
 C         -6.4851782189        1.6898550008        0.4775868503
 H         -7.3508241389        1.8891507708        1.1125366403
 H         -6.7569527689        1.9715577710       -0.5401846497
 C         -6.1696583892        0.1884485107        0.5314411600
 H         -5.3135306393        0.0190822004        1.1886934300
 H         -7.0167310293       -0.3462699792        0.9672377899
 C         -5.8831560593       -0.4482450791       -0.8286303301
 H         -6.7810826893       -0.4058242488       -1.4491037702
 H         -5.6344096295       -1.5004234892       -0.6681850203
 C         -4.7257264692        0.2011947208       -1.5983946700
 H         -5.0313798390        1.1712520709       -1.9892637798
 H         -4.4638967993       -0.4486121091       -2.4368186701
 H         -5.7473615386        3.6027960005        1.0879581106
 H         -5.0149660689        2.2495441602        1.9508802804
 H         -3.4921677886        3.4899891702        0.3895438407
 H         -4.4686877587        2.9175876506       -0.9743463695
 O         -2.2219766890        1.5461724199        0.8490508703
 C         -1.3441421192        0.4894354596        1.0188874402
 O         -0.4450173692        0.7062291293        1.8569644902
 O         -2.7514916296       -1.7771452396       -1.4404454603
 C         -0.5014902696       -1.7698360504        0.5225411298
 C          0.6342884604       -1.6886164105       -0.4688518802
 C          0.4210399604       -1.8383469601       -1.8353216302
 C          1.4805271505       -1.7516259102       -2.7192164002
 C          2.7639521505       -1.5038863505       -2.2632557901
 C          2.9873921205       -1.3548739008       -0.8997736601
 C          1.9234723005       -1.4569269908       -0.0136162801
 H          2.1116893205       -1.3439387310        1.0430786599
 N          4.2814787005       -1.1237352112       -0.4059230500
 S          4.5494344307        0.0174385385        0.7881816902
 O          5.9850988608        0.1951096383        0.7908628403
 O          3.9628942106       -0.4177052216        2.0290516501
 C          3.7663013110        1.5009505588        0.1830396105
 C          4.5022043212        2.3101231388       -0.6625708493
 C          3.9095680914        3.4404060991       -1.1992410591
 C          2.5899697315        3.7378544493       -0.8917555891
 C          1.8658789413        2.9155256992       -0.0436163693
 C          2.4544212911        1.7850173990        0.5030576905
 H          1.8973404109        1.1447842390        1.1689451804
 H          0.8388675514        3.1354319694        0.2044792907
 H          2.1239420817        4.6157255494       -1.3109454989
 H          4.4738205316        4.0840569691       -1.8546686790
 H          5.5276647812        2.0472920287       -0.8665231194
 H          4.9940215206       -1.0650183212       -1.1192383300
 H          3.5884298405       -1.4315525305       -2.9561171201
 H          1.3048459805       -1.8706943799       -3.7776512402
 H         -0.5810997496       -2.0161903099       -2.1941819603
 H         -0.0834801096       -1.5595497607        1.5171973898
 C         -1.0978503499       -3.1635505203        0.5461144595
 C         -0.3542830201       -4.2523911206        1.2565133293
 C         -1.6269558000       -3.7117149405        1.8352556193
 H         -2.5118984801       -4.3296570203        1.8081378992
 H         -1.5609077399       -3.0831505306        2.7120396195
 H         -0.3630998603       -5.2443953605        0.8318353591
 H          0.5747376599       -3.9902247009        1.7412440194
 H         -1.6291566399       -3.4222862600       -0.3597369706
