  62
        -98.93794688
 C         -1.7867698920       -0.6342030412       -0.3261883859
 C         -3.0672947638       -1.2312523335       -0.3330204002
 C         -4.1355613587       -0.5121236064        0.3834025335
 C         -3.8513552343        0.6529495403        0.9954215104
 C         -4.7144999881        1.5772288906        1.8289225757
 C         -6.2348599606        1.4416259757        1.8274380717
 C         -6.9070299936        1.7932571521        0.5007667150
 H         -7.9724508393        1.5691226418        0.5879262413
 H         -6.8063023884        2.8688057803        0.3345646300
 C         -6.3486893113        1.0823973118       -0.7295219189
 H         -6.9160160698        1.4247168836       -1.5992965404
 H         -5.3100547922        1.3805601812       -0.8859102076
 C         -6.4270652433       -0.4426539823       -0.6955249268
 H         -6.1518509374       -0.8083154217       -1.6885278489
 H         -7.4548172892       -0.7539318426       -0.4986926534
 C         -5.5021661784       -1.1313934708        0.3232360590
 H         -5.3557864698       -2.1662138398       -0.0003599292
 H         -5.9545091953       -1.1611257953        1.3118415336
 H         -6.6096448503        2.1390307063        2.5816986243
 H         -6.5254409529        0.4459364658        2.1494509072
 H         -4.3585725763        1.4659903074        2.8593381490
 H         -4.4465163222        2.5925843519        1.5198925061
 O         -2.5945764986        1.1860224342        0.9808958953
 C         -1.5389134865        0.5719746803        0.3260765569
 O         -0.4614526213        1.1887024134        0.3996897214
 O         -3.3092966672       -2.3290489851       -0.9045957955
 C         -0.6480137768       -1.3197869506       -1.0563777390
 C          0.5078075431       -1.5901195300       -0.1250394383
 C          0.2548578140       -2.0456968992        1.1660787813
 C          1.2890630667       -2.2917244575        2.0486989250
 C          2.6043146072       -2.1027635960        1.6610769480
 C          2.8699755666       -1.6649304625        0.3717930045
 C          1.8277198167       -1.4147194281       -0.5137017659
 H          2.0553974266       -1.0722857338       -1.5114677887
 N          4.2128260311       -1.4826261506       -0.0250680385
 S          5.0657516185       -0.2254263652        0.6819587547
 O          6.4119712292       -0.3259836555        0.1661210748
 O          4.9182549616       -0.3079050921        2.1117428742
 C          4.2960150599        1.2556901494        0.0521517544
 C          3.0196676577        1.5711076112        0.4732933930
 C          2.3849512224        2.6733074071       -0.0772243001
 C          3.0395367770        3.4436293297       -1.0260263910
 C          4.3260307473        3.1198821206       -1.4317899364
 C          4.9588754668        2.0097197742       -0.8969011963
 H          5.9532291878        1.7137898541       -1.1902740866
 H          4.8319462847        3.7237796406       -2.1680287827
 H          2.5409589128        4.3002249674       -1.4523613532
 H          1.3736543192        2.8924645936        0.2259035045
 H          2.5241735386        0.9607097673        1.2108342893
 H          4.3296393489       -1.4318066306       -1.0280807774
 H          3.4224061314       -2.2704941516        2.3419167084
 H          1.0709687881       -2.6361986856        3.0485440834
 H         -0.7707169449       -2.1965796399        1.4749653347
 H         -1.0542645208       -2.2878290193       -1.3869844120
 C         -0.2569397259       -0.5131864829       -2.2784918589
 C          0.2523115742       -1.1963786537       -3.5119295640
 C         -1.1193148129       -0.5933480807       -3.5011068830
 H         -1.2941134344        0.3072137719       -4.0702776516
 H         -1.9709048849       -1.2569010944       -3.4623772120
 H          1.0193391613       -0.7075007268       -4.0940310864
 H          0.3303893133       -2.2730726323       -3.4928703023
 H          0.1565995337        0.4557608718       -2.0198473464
