  62
        -98.94822226
 C          1.1861631478        1.2298618650       -0.0270117564
 C          1.8819538106        0.6276866920        1.0482758580
 C          2.5106963705       -0.6690115593        0.7625435599
 C          2.3877697869       -1.2032854136       -0.4662635556
 C          3.0190372380       -2.4909831511       -0.9084526029
 C          4.4089714101       -2.2493153971       -1.5138240762
 C          5.3151487612       -1.3730635527       -0.6492036161
 H          4.8969146618       -0.3651150013       -0.6006314651
 H          6.2779877635       -1.2976543337       -1.1589245641
 C          5.5323009226       -1.8981985282        0.7767986047
 H          6.5936614689       -1.8205482315        1.0217115236
 H          5.2644199231       -2.9541447933        0.8287493893
 C          4.7698438614       -1.1301157665        1.8582326313
 H          4.9638516356       -0.0594927344        1.7541723821
 H          5.1568994539       -1.4389930819        2.8329938602
 C          3.2507422857       -1.3430199003        1.8829006027
 H          2.8653737307       -0.8989824916        2.8059761063
 H          3.0270130772       -2.4121497685        1.9036124019
 H          4.2845983680       -1.7608321382       -2.4828124733
 H          4.8859541883       -3.2169880073       -1.6789841905
 H          3.0930261852       -3.1632404889       -0.0557393976
 H          2.3780631464       -2.9499157651       -1.6630398341
 O          1.7026884574       -0.6007121564       -1.4707159362
 C          1.0722169644        0.6225140406       -1.2768180515
 O          0.4604491268        1.0454432826       -2.2740780029
 H         -1.0550086133        0.7901531416        1.4390451645
 C         -1.6315903515        1.3992551608        0.7574678051
 C         -0.9976791892        2.3915355251        0.0176762326
 C         -1.7623703631        3.1766682089       -0.8346578588
 C         -3.1243929420        2.9592202673       -0.9516598169
 C         -3.7479035904        1.9609068472       -0.2270803823
 C         -2.9938584532        1.1762012227        0.6393782056
 N         -3.6091386740        0.1768127175        1.4144154668
 S         -2.9372324888       -1.3482854679        1.5281997874
 O         -3.9856228904       -2.1543397356        2.1153645417
 O         -1.6921567240       -1.2982724903        2.2504777489
 C         -2.6647269135       -1.8553102830       -0.1574244351
 C         -3.7330187367       -2.3485190715       -0.8814989516
 C         -3.5401710985       -2.6899865891       -2.2097987759
 C         -2.2920939195       -2.5224080131       -2.7913123461
 C         -1.2299617538       -2.0278184947       -2.0508170880
 C         -1.4164525518       -1.6910406559       -0.7197343743
 H         -0.6131027711       -1.3049496749       -0.1111358607
 H         -0.2609153754       -1.8808055831       -2.5010449211
 H         -2.1422342369       -2.7796492630       -3.8279600996
 H         -4.3611213999       -3.0807903875       -2.7890396547
 H         -4.6835109508       -2.4712404597       -0.3880062622
 H         -4.6077393774        0.1079785068        1.2782702046
 H         -4.8096157560        1.7913122420       -0.3215421874
 H         -3.7068958128        3.5730589141       -1.6215363547
 H         -1.2926565637        3.9559800639       -1.4112336324
 C          0.4911764276        2.5602827339        0.1988616662
 H          0.6759761594        2.8090766026        1.2547549065
 C          1.0995974246        3.6401436934       -0.6703004582
 C          1.0297785368        5.0753047184       -0.2444705369
 C          2.3351112136        4.3413745936       -0.1941229692
 H          3.0978595553        4.5909283892       -0.9164560556
 H          2.7265813561        4.0561424595        0.7717624205
 H          0.5363621030        5.2951932660        0.6901850382
 H          0.8986680969        5.8329821059       -1.0020404542
 H          1.0310828060        3.4138393164       -1.7281597390
 O          1.9722507460        1.1503586625        2.1926370044
