  62
        -98.92788517
 C          1.7100696496        1.8702883493        0.0106652103
 C          1.5188626395        0.5205684094       -0.3662086701
 C          2.6624464594       -0.3897986208       -0.1386306303
 C          3.8206684394        0.1065548190        0.3295259001
 C          5.1161541193       -0.6097133413        0.6193571500
 C          5.5778027493       -1.6556706510       -0.4069168502
 C          5.4646413491       -3.0956045012        0.0972146693
 H          6.1714569891       -3.7164335911       -0.4579373408
 H          5.7659899689       -3.1200635015        1.1466453093
 C          4.0809943490       -3.7270653010       -0.0461872511
 H          3.8887778992       -3.9388978106       -1.1001015512
 H          4.0994475689       -4.6843432111        0.4801099586
 C          2.9233348790       -2.8875014210        0.4976348690
 H          3.2062679890       -2.4125794713        1.4362651792
 H          2.0968751989       -3.5643201510        0.7213293587
 C          2.4130847593       -1.8302455106       -0.4927238607
 H          2.8178983494       -2.0253909704       -1.4896111507
 H          1.3255803393       -1.9056344105       -0.5892209609
 H          6.6281569994       -1.4600921910       -0.6294645300
 H          5.0242100195       -1.5334482007       -1.3363808203
 H          5.0452280591       -1.0677093716        1.6093038599
 H          5.8629742694        0.1837440386        0.6998750904
 O          3.9684059395        1.4263762688        0.6448203605
 C          2.9288557096        2.3238231490        0.5193857206
 O          3.2059264697        3.4860680188        0.8811465111
 O          0.4564291896        0.0708856897       -0.8664703904
 C          0.6149012598        2.9248129094       -0.1176842495
 C         -0.6634398804        2.3966889094        0.4817579601
 C         -0.7790154106        2.4656048290        1.8699413801
 C         -1.8790554207        1.9482236989        2.5266733398
 C         -2.9073582207        1.3553291092        1.8152526595
 C         -2.8047063605        1.2751199296        0.4339524795
 C         -1.6906998503        1.7873108397       -0.2212995002
 H         -1.6333436302        1.6653862901       -1.2882682102
 N         -3.8480301204        0.7006640000       -0.3178152909
 S         -4.4031623107       -0.8348179401        0.0377750086
 O         -5.3560714605       -1.1366081596       -1.0062802317
 O         -4.9092053109       -0.8551582104        1.3872920485
 C         -2.9977185608       -1.9214484702       -0.1033090616
 C         -2.7947041507       -2.5878090398       -1.2948407718
 C         -1.6977091807       -3.4238715399       -1.4167585119
 C         -0.8239985609       -3.5722895803       -0.3513525918
 C         -1.0352213010       -2.8861043907        0.8345551484
 C         -2.1317487809       -2.0498066706        0.9632926185
 H         -2.3295603510       -1.5041430209        1.8717030587
 H         -0.3472157011       -2.9937633610        1.6582824985
 H          0.0277999890       -4.2276208104       -0.4486300919
 H         -1.5249504906       -3.9538077296       -2.3397813420
 H         -3.5049050205       -2.4498872395       -2.0944329918
 H         -3.7041531003        0.7740724403       -1.3151451308
 H         -3.7729160608        0.9443460092        2.3088757792
 H         -1.9406820409        2.0114834285        3.6027964598
 H          0.0205015694        2.9243961687        2.4360293704
 H          0.9477502698        3.7436817292        0.5394022308
 C          0.6289348300        3.5209839099       -1.5200750393
 C          0.2020348601        2.8106482303       -2.7679158196
 C         -0.5814977498        3.9889006703       -2.2688884194
 H         -0.5058629996        4.9148689804       -2.8196595390
 H         -1.5512517999        3.8247668802       -1.8270577795
 H          0.8120343103        2.9431599605       -3.6504950695
 H         -0.1977400100        1.8136496603       -2.6780948000
 H          1.5187419301        4.1371987898       -1.6279986490
