  62
        -98.94375273
 C         -1.2439180177       -0.9133990437        0.2047198372
 C         -1.6946232720        0.2106361354        0.9418036268
 C         -2.7130220326        1.0438057241        0.2948634380
 C         -3.0910093080        0.7713464759       -0.9666358281
 C         -4.0952290175        1.5448958097       -1.7772852542
 C         -5.5537765436        1.1480669840       -1.5099394136
 C         -6.1180670649        1.6083735713       -0.1651337761
 H         -5.9427388230        2.6781307165       -0.0469335483
 H         -7.1986478601        1.4571842486       -0.2030105706
 C         -5.5564837345        0.8550478268        1.0487503764
 H         -6.3760535520        0.5717300976        1.7127968168
 H         -5.0813567176       -0.0699654350        0.7138002582
 C         -4.5533459862        1.6531047366        1.8817583107
 H         -5.0523827391        2.5154269735        2.3291364747
 H         -4.1945271750        1.0132250354        2.6919361732
 C         -3.3335313228        2.1494936036        1.0941146025
 H         -3.6151464227        2.9771207319        0.4429767568
 H         -2.5842265261        2.5058963619        1.8054632017
 H         -6.1607701683        1.5881554991       -2.3044693644
 H         -5.6397444824        0.0618421335       -1.5893919627
 H         -3.9662000750        2.6126895203       -1.5962224699
 H         -3.8680954815        1.3426719836       -2.8264307212
 O         -2.5645939191       -0.2592978554       -1.6785410215
 C         -1.6363915866       -1.1287360110       -1.1172546660
 O         -1.2517270075       -2.0210182148       -1.8959159236
 O         -1.2572981878        0.5080293031        2.0859238938
 C         -0.2004446471       -1.8039075472        0.8531209905
 C          0.9963025634       -1.9552910108       -0.0529286320
 C          1.6308767999       -3.1614822068       -0.3177032307
 C          2.7457588788       -3.1972259020       -1.1382915372
 C          3.2632853476       -2.0403857397       -1.6911868512
 C          2.6321072490       -0.8279085791       -1.4348200905
 C          1.5108289117       -0.7987178161       -0.6241926424
 H          1.0066967672        0.1412444332       -0.4606307556
 N          3.1127709008        0.3724657467       -1.9769563951
 S          2.9293498220        1.8021266776       -1.1351509489
 O          1.5672328769        2.2692467391       -1.2175484796
 O          3.9295055384        2.6792872780       -1.7064772718
 C          3.3674918971        1.4091315768        0.5496638381
 C          4.6787731951        1.0509777587        0.7982813097
 C          5.0479232111        0.7012282452        2.0863318092
 C          4.1023826165        0.7100422163        3.1009363064
 C          2.7925074300        1.0778401394        2.8374344738
 C          2.4184520135        1.4328073704        1.5506407455
 H          1.4034260283        1.7177131742        1.3199347324
 H          2.0499300733        1.0847832327        3.6196052028
 H          4.3866389420        0.4309409664        4.1032333049
 H          6.0674168821        0.4198822036        2.2949612242
 H          5.3872352644        1.0658166214       -0.0138277553
 H          4.0007405374        0.3107498745       -2.4515746431
 H          4.1342408420       -2.0724893173       -2.3274007928
 H          3.2235625268       -4.1426129821       -1.3457514008
 H          1.2434216704       -4.0766641293        0.0984005418
 H          0.1322422598       -1.2229501163        1.7313224228
 C         -0.7343284482       -3.1233979698        1.3913925634
 C         -2.1962558951       -3.3207350617        1.6571134018
 C         -1.5287970368       -4.0722839054        0.5465891998
 H         -1.3646519001       -5.1324082833        0.6742088888
 H         -1.7343836397       -3.7788592436       -0.4705115838
 H         -2.4888718855       -3.8603440011        2.5454961145
 H         -2.8664632909       -2.5144736706        1.3948805654
 H         -0.0577202048       -3.5699001468        2.1134443079
