  62
        -98.94419840
 C         -1.6452902829       -1.4390161228        0.3792555142
 C         -1.7785568406       -0.2309064930        1.1141389867
 C         -3.0381791367        0.5047076620        0.9465561051
 C         -4.0007235837       -0.0162632743        0.1647391444
 C         -5.3271389166        0.6285000651       -0.1137953990
 C         -5.2710705630        1.5026510775       -1.3741704353
 C         -4.0854986804        2.4670281627       -1.4030047380
 H         -3.1600811231        1.8906502228       -1.4738660209
 H         -4.1682630708        3.0561021601       -2.3188694706
 C         -4.0041950065        3.4093312576       -0.1938979615
 H         -3.7849777395        4.4176283730       -0.5510884972
 H         -4.9696401915        3.4486633203        0.3117358708
 C         -2.9137529957        3.0472431628        0.8162404371
 H         -1.9695817694        2.8957290866        0.2877419399
 H         -2.7838630504        3.8949520170        1.4943787980
 C         -3.1871968534        1.8083724700        1.6792287861
 H         -4.1776881253        1.8857032103        2.1325119854
 H         -2.4455221326        1.7861446004        2.4832920358
 H         -5.2020599238        0.8485067249       -2.2463992819
 H         -6.2037551404        2.0654435347       -1.4451118177
 H         -6.0668220997       -0.1601953811       -0.2621824188
 H         -5.6198108111        1.2289850808        0.7454425656
 O         -3.8519976178       -1.1874652866       -0.5002092523
 C         -2.6693106443       -1.9131320248       -0.4416183966
 O         -2.6851455239       -2.9346509074       -1.1560964510
 O         -0.8835411482        0.2078113224        1.8845094563
 C         -0.3311681578       -2.1829481039        0.5418879243
 C          0.6453152418       -1.8419400359       -0.5591666777
 C          0.3290496477       -2.0424263002       -1.8988206290
 C          1.2465822836       -1.7330438355       -2.8858789776
 C          2.4878586421       -1.2146471623       -2.5603603224
 C          2.8166816062       -1.0166749113       -1.2242822474
 C          1.8948988574       -1.3341606255       -0.2353927007
 H          2.1669064604       -1.1864582353        0.7979513413
 N          4.0789304867       -0.5234464705       -0.8689169662
 S          4.2953909112        0.4900618804        0.4413898990
 O          5.6154701972        1.0455272882        0.2375492348
 O          4.0979268098       -0.2384204859        1.6686425943
 C          3.0703431928        1.7717305908        0.2593598742
 C          3.2687549648        2.7153001310       -0.7311376715
 C          2.3198387645        3.7069086456       -0.9135529938
 C          1.1907601721        3.7387325346       -0.1076021351
 C          1.0105717748        2.7894026505        0.8851202854
 C          1.9560885727        1.7934998996        1.0709434960
 H          1.8243278277        1.0422513809        1.8320867915
 H          0.1351289968        2.7950957017        1.5143454953
 H          0.4495379776        4.5095928761       -0.2510444966
 H          2.4602477012        4.4506303463       -1.6814780107
 H          4.1664113702        2.6676794518       -1.3261569988
 H          4.6664384538       -0.2592203338       -1.6455972235
 H          3.2013810931       -0.9733243321       -3.3332778712
 H          0.9909459037       -1.8939587067       -3.9223708632
 H         -0.6394034585       -2.4432030474       -2.1561249032
 H          0.0951101552       -1.8113536034        1.4841901939
 C         -0.4836022786       -3.6876210708        0.6537325637
 C          0.6075764508       -4.4775488388        1.3091914872
 C         -0.7121640372       -4.3054098273        1.9987612320
 H         -1.3749272787       -5.1548000211        2.0689189114
 H         -0.7585813940       -3.6445386625        2.8523552736
 H          0.8543145657       -5.4475409567        0.9056682836
 H          1.4574140613       -3.9343043345        1.6956200263
 H         -0.9912313380       -4.1336877251       -0.1912879686
