  62
        -98.94212992
 C         -0.6771717812       -1.8634489464        0.1017140499
 C         -1.4448300767       -1.1455971338        1.0454006955
 C         -2.7029067083       -0.5466047578        0.5629255837
 C         -3.0477755675       -0.7189677527       -0.7264543032
 C         -4.2661951569       -0.1731638359       -1.4198784618
 C         -4.1225703043        1.3156368775       -1.7941380356
 C         -3.3459942980        2.1698019458       -0.7929031377
 H         -2.3706000071        1.7100517937       -0.6197934017
 H         -3.1455452019        3.1361359201       -1.2648208902
 C         -4.0545120003        2.4368530022        0.5342068111
 H         -3.3611121807        2.9895637391        1.1738249096
 H         -4.9163517612        3.0820197920        0.3449349323
 C         -4.5496349204        1.2070625900        1.2932393935
 H         -5.3720277606        0.7428161901        0.7558006201
 H         -4.9563656356        1.5562239672        2.2472189337
 C         -3.4787655683        0.1749059851        1.6376706554
 H         -2.7218858138        0.6491932013        2.2721338477
 H         -3.9392205604       -0.6024872247        2.2603588718
 H         -3.5843396523        1.3713267591       -2.7432744543
 H         -5.1178346896        1.7377535238       -1.9435082776
 H         -4.3946320301       -0.7506389075       -2.3378526307
 H         -5.1412250191       -0.3413455498       -0.7973331755
 O         -2.2750177250       -1.4149982711       -1.6060210754
 C         -1.0725066095       -1.9880745427       -1.2296758593
 O         -0.4700139978       -2.5759487549       -2.1487180508
 H          0.7717000918       -0.0009778383       -0.5051098784
 C          1.7028448889       -0.5298019008       -0.6307543640
 C          1.8079160139       -1.8394883259       -0.1858796366
 C          3.0087417588       -2.5108476314       -0.3884345485
 C          4.0618170633       -1.8829376903       -1.0302609915
 C          3.9494807887       -0.5778860585       -1.4746049264
 C          2.7527161369        0.1021965062       -1.2778200308
 N          2.5875681010        1.4145873932       -1.7313544059
 S          1.4214742145        2.4320129249       -1.1212906901
 O          0.1065331067        2.0041999969       -1.5274747254
 O          1.8299873443        3.7423609362       -1.5829217492
 C          1.5885307363        2.3483963608        0.6523273729
 C          0.5180641799        1.9584046833        1.4294697207
 C          0.6777106286        1.8743909424        2.8030085884
 C          1.9010405047        2.1879464268        3.3738462247
 C          2.9652265653        2.5924140226        2.5817208854
 C          2.8112835733        2.6716445587        1.2075236740
 H          3.6154840420        2.9858315845        0.5625233173
 H          3.9137482459        2.8395503828        3.0306476767
 H          2.0233203829        2.1157324069        4.4430369198
 H         -0.1481328791        1.5409840978        3.4108915979
 H         -0.4180745942        1.7116791264        0.9525908729
 H          3.4142825122        1.8872961448       -2.0605825185
 H          4.7700535959       -0.0927144907       -1.9798953722
 H          4.9864038935       -2.4175711217       -1.1861208481
 H          3.1158384897       -3.5282318091       -0.0492238604
 C          0.6416170378       -2.4664039964        0.5413162708
 H          0.7361428553       -2.2086528354        1.6080517527
 C          0.6108118299       -3.9765672798        0.4091497369
 C          1.3080776494       -4.8461798503        1.4113325292
 C         -0.1879939953       -4.7708702670        1.3978022941
 H         -0.7490177190       -5.6222794744        1.0428759742
 H         -0.6801709435       -4.2229413484        2.1881818888
 H          1.8278734981       -4.3595548776        2.2227884154
 H          1.7760106648       -5.7558640779        1.0660411003
 H          0.5894708546       -4.3005704411       -0.6253010848
 O         -1.0926136299       -1.0018728776        2.2481560658
