  62
        -98.94372597
 C          1.5009876779        0.8539468152       -0.1454553644
 C          1.9620574078       -0.1208551552        0.7715450051
 C          3.0092579595       -1.0247682701        0.2772802692
 C          3.4328651796       -0.9062178864       -0.9945653320
 C          4.5259475013       -1.7282543356       -1.6123491864
 C          5.8935916082       -1.0519323571       -1.4429710436
 C          6.1844960898       -0.5949773950       -0.0134459320
 H          7.1867685533       -0.1612962744       -0.0088435142
 H          5.4880102956        0.2028404273        0.2541795642
 C          6.1052308240       -1.7103964069        1.0383076793
 H          6.1671391373       -2.6843158194        0.5512174412
 H          6.9670137718       -1.6261867389        1.7037003893
 C          4.8556511857       -1.6629536368        1.9193045069
 H          4.7397491340       -0.6592777408        2.3358598958
 H          5.0039019657       -2.3500160464        2.7566790750
 C          3.5412437806       -2.0554697912        1.2331450918
 H          3.6604545877       -3.0198524491        0.7346573788
 H          2.7800206462       -2.1628509740        2.0115938898
 H          6.6663330812       -1.7509196284       -1.7682395342
 H          5.9300464641       -0.1772327141       -2.0964769023
 H          4.5374469654       -2.7144098084       -1.1517377695
 H          4.3139536904       -1.8377662931       -2.6773979294
 O          2.9351924298        0.0140551543       -1.8597157615
 C          1.9593648559        0.9184241648       -1.4613157948
 O          1.5893233659        1.7017292868       -2.3553842659
 H         -0.5920061876       -0.5030189052       -0.5150075903
 C         -1.2365830408        0.3226741022       -0.7911822105
 C         -0.8511486213        1.6183860362       -0.4729350914
 C         -1.6999121662        2.6602709588       -0.8257340401
 C         -2.8929644856        2.4076229657       -1.4816744095
 C         -3.2725076987        1.1144719003       -1.7927721150
 C         -2.4300797710        0.0676899841       -1.4465730687
 N         -2.8382152480       -1.2643601642       -1.7064331666
 S         -4.0886014346       -1.7561020231       -0.6947168907
 O         -4.0301682218       -3.2003563920       -0.6624718710
 O         -5.3221231710       -1.1802625362       -1.1652052581
 C         -3.6463601465       -1.0563074688        0.8851911820
 C         -4.2444068110        0.1155232932        1.3011407825
 C         -3.7908584398        0.7205967733        2.4621003653
 C         -2.7454179895        0.1536671125        3.1742835095
 C         -2.1563069125       -1.0257698125        2.7451849609
 C         -2.6089297204       -1.6369040724        1.5876522037
 H         -2.1741675731       -2.5544844777        1.2226591855
 H         -1.3324304309       -1.4551134215        3.2926902091
 H         -2.3806837544        0.6335336915        4.0688269801
 H         -4.2450501200        1.6377856171        2.8005442053
 H         -5.0448899191        0.5285172775        0.7097286732
 H         -2.0768700570       -1.9239198911       -1.6212899357
 H         -4.2074626102        0.8953122816       -2.2823587561
 H         -3.5387328799        3.2296016068       -1.7497661399
 H         -1.4274653632        3.6743730330       -0.5837349048
 C          0.4263809223        1.8245075275        0.3038025007
 H          0.2178646271        1.5584493172        1.3519272921
 C          0.9358405907        3.2501951654        0.2561973751
 C          0.4560109592        4.2611411760        1.2533658062
 C          1.8520657566        3.7250633021        1.3430241330
 H          2.6750462373        4.3719081862        1.0783374218
 H          2.0831559555        3.0282749753        2.1356401305
 H          0.3219190545        5.2818386112        0.9281495253
 H         -0.2581112079        3.9342243702        1.9937755198
 H          1.1441348506        3.5830154352       -0.7543379785
 O          1.5114639702       -0.2352950724        1.9427141514
