  62
        -98.93808592
 C          1.7285605985        0.4051041385        0.1281557894
 C          2.8710616307        0.3652167557        0.9704513233
 C          3.9842719114       -0.5002970970        0.5506685904
 C          3.8702389923       -1.2097191565       -0.5846350223
 C          4.8484672837       -2.1843432191       -1.1912272700
 C          6.3342233830       -1.8020650156       -1.1721067192
 C          6.6182691738       -0.3001867066       -1.3204587181
 H          7.3499436509       -0.1543328339       -2.1172919070
 H          5.7080578738        0.2254405053       -1.6140815512
 C          7.1815516434        0.3296579555       -0.0443005610
 H          7.9287010245       -0.3451980843        0.3790822930
 H          7.6928060428        1.2588202355       -0.3074205321
 C          6.1490801822        0.6699503790        1.0297393135
 H          6.6875765587        1.0030856052        1.9201768406
 H          5.5313865102        1.5084726722        0.6970696881
 C          5.2036573963       -0.4757344073        1.4267289398
 H          5.7205167841       -1.4323589873        1.4242798317
 H          4.8428625450       -0.2780419266        2.4397652007
 H          6.7914695419       -2.1610808469       -0.2511735856
 H          6.8095918014       -2.3457482233       -1.9904085310
 H          4.7205608476       -3.1489570533       -0.6910179050
 H          4.5172688176       -2.3129203783       -2.2246848800
 O          2.7543433379       -1.1493615564       -1.3617304747
 C          1.6664888655       -0.3526001057       -1.0398429967
 O          0.7400446283       -0.4286785706       -1.8733522311
 O          2.9555017474        1.0290803610        2.0374180019
 C          0.5982844453        1.3214999277        0.5647343810
 C         -0.5307390446        0.5681858421        1.2254888050
 C         -0.9492558288        0.8861102220        2.5119925499
 C         -2.0162457828        0.2219824358        3.0930476588
 C         -2.6851208603       -0.7749756155        2.4053045590
 C         -2.2663507340       -1.1055664158        1.1236396482
 C         -1.2049445355       -0.4318605419        0.5393252891
 H         -0.8931910977       -0.6903317339       -0.4617479151
 N         -2.9516913967       -2.1129600562        0.4038535620
 S         -4.5129191249       -1.6895089247       -0.0406399406
 O         -5.3413024162       -1.6705770257        1.1381649113
 O         -4.8978345740       -2.6197199156       -1.0775802502
 C         -4.3506016312       -0.0417594984       -0.7024206507
 C         -4.5320703280        1.0440426519        0.1301868505
 C         -4.3221640800        2.3162775330       -0.3761542000
 C         -3.9338139963        2.4784975401       -1.6969554986
 C         -3.7503869091        1.3773763908       -2.5188884079
 C         -3.9548625011        0.1026276299       -2.0168861799
 H         -3.8251946807       -0.7786754433       -2.6249858567
 H         -3.4427980796        1.5061077418       -3.5443905240
 H         -3.7757099141        3.4699828155       -2.0920648464
 H         -4.4578189025        3.1749799684        0.2612089132
 H         -4.8378184191        0.8739438690        1.1493097237
 H         -2.4459018290       -2.4001404666       -0.4234081541
 H         -3.5276213388       -1.2938692107        2.8331818978
 H         -2.3302339169        0.4822537314        4.0923302564
 H         -0.4265914166        1.6550991687        3.0614726644
 H          1.0457758447        1.9822814121        1.3190966954
 C          0.0502263746        2.1792440126       -0.5605955427
 C         -0.6067053367        3.4828054510       -0.2253346049
 C          0.7326103869        3.4693370269       -0.8976770267
 H          0.7967276695        3.7610874544       -1.9350866302
 H          1.6004413472        3.7422050491       -0.3147122408
 H         -1.4675456308        3.7845778947       -0.8001465996
 H         -0.6471444310        3.7690500952        0.8144049319
 H         -0.3595525811        1.6025795597       -1.3797237707
