  62
        -98.94184624
 C         -2.2546428402        0.7263434901       -0.1239590539
 C         -3.4352702527        1.0099247266       -0.8610250842
 C         -4.3801153707       -0.0986723020       -1.0289876477
 C         -4.0664169379       -1.3171002338       -0.5542902365
 C         -4.9123771814       -2.5562517512       -0.6658175066
 C         -5.9863214464       -2.6762260741        0.4243990945
 C         -7.1688875326       -1.7170011198        0.2816857915
 H         -7.5799195678       -1.7968886495       -0.7251083169
 H         -7.9403766969       -2.0549369574        0.9764115162
 C         -6.8364512237       -0.2501766019        0.5894102228
 H         -7.6093615561        0.1704382569        1.2365908592
 H         -5.8951189305       -0.1989409694        1.1418022975
 C         -6.7380624795        0.6494250677       -0.6428505112
 H         -7.7129642236        0.7089384879       -1.1314546976
 H         -6.4655448770        1.6551736698       -0.3124730135
 C         -5.7002108887        0.1922267096       -1.6764268805
 H         -5.5476156737        1.0032026917       -2.3926278797
 H         -6.0628238747       -0.6847260854       -2.2120742388
 H         -6.3694155299       -3.6988325601        0.3926254502
 H         -5.5128953322       -2.5296983197        1.3981735266
 H         -5.3835508117       -2.5914221844       -1.6485120803
 H         -4.2321790949       -3.4060371916       -0.5753511114
 O         -2.8951426511       -1.5684502986        0.0856376830
 C         -1.9717623971       -0.5591996333        0.3419997746
 O         -0.9757761752       -0.9532334682        0.9779254417
 O         -3.6870933131        2.1399197545       -1.3563417487
 C         -1.2822677338        1.8755403482        0.0828429320
 C          0.1051740907        1.4617082436       -0.3322339177
 C          0.4429011439        1.4570552939       -1.6822445602
 C          1.6939302735        1.0382563125       -2.0941213046
 C          2.6290682767        0.6042143349       -1.1705748708
 C          2.2930888337        0.5838361655        0.1759884672
 C          1.0454317932        1.0321355932        0.5899278492
 H          0.7897314670        1.0025949616        1.6376119032
 N          3.2277797442        0.1352635044        1.1229849136
 S          4.1550152391       -1.2198002010        0.7824155411
 O          3.4825759385       -2.1401611587       -0.1045679638
 O          4.5464201454       -1.7397664590        2.0750004978
 C          5.5952764507       -0.5415332125       -0.0199413673
 C          6.0238619899       -1.0643539100       -1.2242315506
 C          7.1536702684       -0.5298571834       -1.8241424076
 C          7.8327668831        0.5118788723       -1.2114403361
 C          7.3916123366        1.0239555336       -0.0003303385
 C          6.2636050773        0.4934136934        0.6046674547
 H          5.8902119034        0.8610055489        1.5456924088
 H          7.9222471409        1.8340876904        0.4733673691
 H          8.7109603793        0.9267723768       -1.6804181376
 H          7.4979285843       -0.9277540884       -2.7652685651
 H          5.4609798289       -1.8710976960       -1.6667023895
 H          2.8560021599        0.0868913401        2.0607319133
 H          3.6004324509        0.2604316996       -1.4861772853
 H          1.9444487164        1.0445187221       -3.1440987982
 H         -0.2931864516        1.7772099984       -2.4067629923
 H         -1.6305630659        2.6503117910       -0.6191624559
 C         -1.3247261401        2.5010657899        1.4695366887
 C         -2.6331418393        2.6881488003        2.1762788643
 C         -1.6206374253        1.7254875448        2.7166409904
 H         -1.0914016572        1.9941165171        3.6197335215
 H         -1.8111747167        0.6675935297        2.6251213849
 H         -2.8067900030        3.6100744491        2.7102444861
 H         -3.5149937781        2.2850706147        1.6996221662
 H         -0.6049612459        3.3086842950        1.5640837146
