  62
        -98.93504004
 C         -2.2836720006       -0.3556927797        0.2735897092
 C         -3.5137130807       -0.7636844791        0.8374334994
 C         -4.6928173205        0.0596428010        0.5179624189
 C         -4.5497935502        1.1317742106       -0.2837518817
 C         -5.5520151400        2.1668611106       -0.7514480423
 C         -7.0513799200        1.9377410510       -0.5789422322
 C         -7.6292041303        0.8112454707       -1.4353093916
 H         -8.6748137003        0.6695938511       -1.1535124716
 H         -7.6062875602        1.1249683101       -2.4819525218
 C         -6.9034291506       -0.5285560694       -1.3414179409
 H         -7.4108102208       -1.2311529397       -2.0081452005
 H         -5.8809740506       -0.4190534499       -1.7090021009
 C         -6.8656499308       -1.1551054887        0.0508740495
 H         -6.4611420510       -2.1654010288       -0.0540163500
 H         -7.8805798408       -1.2404474582        0.4438602195
 C         -5.9996109506       -0.4159284483        1.0851710791
 H         -5.7474203908       -1.1231275180        1.8807712195
 H         -6.5438214805        0.4076532321        1.5407881986
 H         -7.5437740998        2.8661730710       -0.8807887827
 H         -7.2901647501        1.7819355617        0.4688745479
 H         -5.2815462997        3.0944701908       -0.2349084828
 H         -5.3345151299        2.3322402899       -1.8114809924
 O         -3.3359286201        1.4903390700       -0.7997419119
 C         -2.1824250003        0.7677748098       -0.5435463314
 O         -1.1588352202        1.2224387993       -1.0903249417
 O         -3.6232527810       -1.7694191586        1.5896272099
 C         -1.0368786708       -1.1707364998        0.5572066996
 C          0.0339243794       -0.3111843998        1.1822159292
 C         -0.3081387604        0.5529343909        2.2193835987
 C          0.6460552097        1.3565645110        2.8113940883
 C          1.9620462597        1.3132516404        2.3858794884
 C          2.3199735896        0.4381092598        1.3675131789
 C          1.3581187694       -0.3704218303        0.7768282193
 H          1.6589428892       -1.0342374408       -0.0150755704
 N          3.6653143295        0.3335460992        0.9693268190
 S          4.0767043595        0.0655716582       -0.6447133609
 O          3.5677543598        1.1285083079       -1.4834915615
 O          3.7074941192       -1.2770885119       -1.0132854602
 C          5.8521257595        0.1774534479       -0.5126811409
 C          6.5331821993       -0.8890374620        0.0436235097
 C          7.9096902293       -0.8079284023        0.1789986797
 C          8.5792896696        0.3315863074       -0.2422930409
 C          7.8829047799        1.3924512072       -0.8010684915
 C          6.5051978298        1.3184892375       -0.9374040215
 H          5.9229839100        2.1154598174       -1.3716481720
 H          8.4064007201        2.2754587369       -1.1306048220
 H          9.6509983696        0.3919831371       -0.1367762209
 H          8.4548098791       -1.6315839122        0.6110138302
 H          5.9714784490       -1.7566027917        0.3479010902
 H          4.2314138597        1.0831732993        1.3449862186
 H          2.7058378499        1.9486386805        2.8424878980
 H          0.3629291099        2.0293510115        3.6071202779
 H         -1.3380666604        0.5928925613        2.5477537787
 H         -1.3433766710       -1.9277987194        1.2953949901
 C         -0.5781198810       -1.8784777806       -0.7007795600
 C          0.1274735187       -3.1976283708       -0.6148072792
 C         -1.2776444813       -3.1317016107       -1.1308539793
 H         -1.4511677013       -3.2894129412       -2.1848154492
 H         -2.0727874214       -3.4956182102       -0.4964936991
 H          0.9289845187       -3.3959710813       -1.3108364791
 H          0.2862583086       -3.6139246403        0.3685384510
 H         -0.2696841408       -1.1859831811       -1.4778544203
