  62
        -98.94135098
 C         -0.5218168992       -1.5379554702        0.1102401000
 C         -1.2730714494       -0.7683240305        1.0245865701
 C         -2.3706235499        0.0467012590        0.4684365703
 C         -2.5555916501        0.0577999290       -0.8648805997
 C         -3.6415674705        0.7391325985       -1.6546736896
 C         -4.9882042301        0.0066980179       -1.5523776394
 C         -5.3888698798       -0.3940172223       -0.1353971493
 H         -6.3200046295       -0.9630084327       -0.2023145692
 H         -4.6308315094       -1.0629037819        0.2758675906
 C         -5.6193595101        0.7671707676        0.8297477207
 H         -6.0202097198        0.3421180374        1.7535214808
 H         -6.3798299405        1.4324864973        0.4152793308
 C         -4.3846081205        1.5986761982        1.1903521205
 H         -4.6349401306        2.1801492880        2.0823003006
 H         -4.1488471209        2.3163944383        0.4100139905
 C         -3.1465051701        0.7783291587        1.5362506504
 H         -2.4156738003        1.4301829290        2.0294263303
 H         -3.4120726496        0.0273189786        2.2894052604
 H         -5.7605684405        0.6454082076       -1.9844349493
 H         -4.9283374798       -0.9040731921       -2.1532510494
 H         -3.7487460909        1.7721020184       -1.3428280295
 H         -3.3207684706        0.7322748986       -2.6982247796
 O         -1.7527006499       -0.6435310407       -1.7159165598
 C         -0.7361675095       -1.4624700902       -1.2652538100
 O         -0.1094272393       -2.0531900500       -2.1649833600
 O         -1.0540710193       -0.7709799704        2.2678493901
 C          0.5828249012       -2.4402663397        0.6274544699
 C          1.9023769810       -2.0401118291        0.0171441297
 C          2.8020751113       -2.9417198887       -0.5353607304
 C          3.9881301110       -2.4924982982       -1.0901571206
 C          4.3036740904       -1.1467956081       -1.0993457306
 C          3.4121820801       -0.2366825684       -0.5408340905
 C          2.2277042004       -0.6893845590        0.0148703596
 H          1.5409625901        0.0174712607        0.4587933397
 N          3.6773048995        1.1379474717       -0.5693827305
 S          3.0428978192        2.1807441314        0.5610021795
 O          3.8138592487        3.3959735417        0.3976965294
 O          3.0551653096        1.6119383814        1.8890820695
 C          1.3715825190        2.5101936907        0.0405665398
 C          0.5001789389        3.0195527703        0.9829476099
 C         -0.7759510113        3.3883792097        0.5900422001
 C         -1.1586650314        3.2349092096       -0.7327037099
 C         -0.2805165113        2.7028204600       -1.6630656400
 C          1.0013996789        2.3434652205       -1.2786311302
 H          1.7052737990        1.9295175208       -1.9819042903
 H         -0.5868832214        2.5690899898       -2.6881739200
 H         -2.1452322916        3.5394601591       -1.0427125298
 H         -1.4627317714        3.7982688394        1.3132884802
 H          0.8372365390        3.1128191404        2.0033611398
 H          4.5884531193        1.4134039421       -0.9021674407
 H          5.2257192302       -0.7982009777       -1.5385812908
 H          4.6769884913       -3.2018898579       -1.5230959607
 H          2.5730648217       -3.9945505688       -0.5399389904
 H          0.6369990513       -2.2492247997        1.7101544699
 C          0.2243707118       -3.8945933398        0.4038824399
 C          0.7474320724       -4.9529471296        1.3272235298
 C         -0.7001621678       -4.5687873402        1.3711021700
 H         -1.4320581575       -5.2636656506        0.9875096401
 H         -1.0504167079       -3.9844557704        2.2096424901
 H          1.0080218928       -5.9158704795        0.9144957498
 H          1.3801543824       -4.6360296893        2.1426137497
 H          0.1135519418       -4.1379441699       -0.6470178301
