  62
        -98.93821233
 C          2.2003280691        0.8897659895        0.4691357230
 C          2.5385632436        0.1859874960       -0.7097296750
 C          3.4725961663       -0.9445204308       -0.5527255431
 C          3.9207631331       -1.2694534376        0.6742241239
 C          4.8380841666       -2.3831017658        1.1350399064
 C          5.7215815894       -3.1304497609        0.1389329070
 C          6.8153725349       -2.2837843778       -0.5102101736
 H          7.5477562078       -2.0142086507        0.2549423156
 H          7.3241559702       -2.8996359905       -1.2550411436
 C          6.3433615941       -0.9920277263       -1.1732345280
 H          7.2181505678       -0.5020028292       -1.6091852496
 H          5.9420334401       -0.3157829035       -0.4155233605
 C          5.3073003499       -1.1662221476       -2.2824461565
 H          5.6774835208       -1.8780137553       -3.0226084050
 H          5.1915595552       -0.1984281226       -2.7773637867
 C          3.9098575699       -1.6181662369       -1.8211297841
 H          3.1879074976       -1.3230276605       -2.5880891904
 H          3.8552350869       -2.6995086086       -1.7200923995
 H          6.2129576749       -3.9296258992        0.7006753611
 H          5.1119755185       -3.6095568961       -0.6214333031
 H          5.4703787721       -1.9415491381        1.9118733831
 H          4.1942572640       -3.1119260541        1.6402813586
 O          3.5179017422       -0.5925694322        1.7913294100
 C          2.6691488133        0.4977620693        1.7202626446
 O          2.4043537972        1.0173994953        2.8247159512
 H         -0.1511502657       -0.0379391792        1.0925932661
 C         -0.6742304790        0.5507497236        0.3472166530
 C         -0.0705655207        1.6997186773       -0.1496716048
 C         -0.7612986311        2.4536180373       -1.0891194996
 C         -2.0122770580        2.0540492819       -1.5273359283
 C         -2.6023950358        0.9035201588       -1.0383990782
 C         -1.9253233002        0.1474507782       -0.0903865067
 N         -2.5279746826       -1.0239244119        0.4172533671
 S         -3.9514101407       -0.7943474933        1.2889206453
 O         -3.9610259419        0.4934026846        1.9456142226
 O         -4.0655081784       -1.9540944309        2.1464155648
 C         -5.2289239157       -0.8542756868        0.0509403359
 C         -5.3967839178       -2.0275591565       -0.6583482901
 C         -6.3889864867       -2.0886737017       -1.6238490591
 C         -7.1927017883       -0.9831222111       -1.8603744333
 C         -7.0133138382        0.1862089564       -1.1371386906
 C         -6.0221213945        0.2545460320       -0.1704391055
 H         -5.8416877407        1.1426431505        0.4136397991
 H         -7.6392379878        1.0442718469       -1.3222615420
 H         -7.9639219616       -1.0334608285       -2.6127172967
 H         -6.5320192123       -2.9962729109       -2.1878646605
 H         -4.7542159943       -2.8639156334       -0.4388230011
 H         -1.8922926752       -1.5857851572        0.9662985482
 H         -3.5721593316        0.5844255193       -1.3835806253
 H         -2.5337104399        2.6470222918       -2.2629349511
 H         -0.3188846159        3.3547684599       -1.4805198916
 C          1.2803654042        2.0939339202        0.3979919344
 H          1.1333642997        2.4240124401        1.4377860319
 C          1.9457753770        3.2114012181       -0.3788026139
 C          1.6426943499        4.6426866358       -0.0557907601
 C          2.9721023300        4.0568779587        0.3112885012
 H          3.8453055658        4.3649591432       -0.2438674447
 H          3.1699458200        3.8444033739        1.3523414062
 H          0.9394103852        4.8378852321        0.7398415989
 H          1.6061520934        5.3577350104       -0.8637379677
 H          2.1304114391        2.9447372082       -1.4129068089
 O          2.0821624808        0.4806827658       -1.8442149893
