  62
        -98.93781182
 C         -1.2407048102       -1.6346738891       -0.8474752206
 C         -2.4362196701       -1.5452216493       -0.0921040204
 C         -3.3324147099       -0.4127239990       -0.3731793296
 C         -2.9860447899        0.4786478015       -1.3200357590
 C         -3.6949196897        1.7135303020       -1.8356338782
 C         -4.8474164795        2.3334607417       -1.0507220376
 C         -4.4475041093        2.9463301107        0.2909835827
 H         -5.3565828392        3.2715206906        0.8022972630
 H         -3.8361235091        3.8322700508        0.1006074132
 C         -3.6518607593        2.0371991500        1.2253436120
 H         -3.4425138591        2.6013864394        2.1390815424
 H         -2.6830992794        1.7999534401        0.7776673018
 C         -4.3530651095        0.7415316699        1.6312105213
 H         -5.3299674994        0.9729593397        2.0610153815
 H         -3.7454639795        0.2725274692        2.4103133009
 C         -4.5415445598       -0.2931329594        0.5081779706
 H         -5.4301072498       -0.0808507289       -0.0816672291
 H         -4.6803718799       -1.2737627897        0.9730329400
 H         -5.6451809696        1.6089688617       -0.9156891180
 H         -5.2505396995        3.1376749122       -1.6724674071
 H         -4.0554760699        1.4570359327       -2.8382231483
 H         -2.9104917196        2.4654293720       -1.9705049178
 O         -1.8462611900        0.3330087418       -2.0500164693
 C         -0.9234955601       -0.6766042885       -1.8078630200
 O          0.0908628598       -0.5947215082       -2.5249334301
 O         -2.7449107001       -2.3916824899        0.7908820091
 C         -0.2836659703       -2.7449007495       -0.4447824314
 C          0.4298403099       -2.3197394704        0.8154695488
 C          0.5414272499       -3.1585352212        1.9162662582
 C          1.1403809901       -2.7050556920        3.0793780784
 C          1.6213945603       -1.4118082422        3.1697183192
 C          1.5197746103       -0.5651548814        2.0687479698
 C          0.9495134401       -1.0357566406        0.8972019595
 H          0.8554418701       -0.3767691900        0.0511494400
 N          2.0005731506        0.7439218985        2.1319513706
 S          1.6597722506        1.9566684092        1.0354794514
 O          1.9517809309        3.1697880487        1.7713561222
 O          0.3267151106        1.8531728498        0.4924089015
 C          2.9173118405        1.7314230998       -0.2059534589
 C          2.6324964602        1.1851549007       -1.4399030192
 C          3.6682897601        1.0066899111       -2.3457153594
 C          4.9601520302        1.3753925407       -2.0083943193
 C          5.2293956104        1.9293406298       -0.7651817790
 C          4.2014127106        2.1074979394        0.1443098412
 H          4.3626868507        2.5451007587        1.1155741015
 H          6.2342348505        2.2198986595       -0.5042405689
 H          5.7593301401        1.2324653310       -2.7185480795
 H          3.4470682599        0.5741667218       -3.3083799697
 H          1.6246304202        0.8952656110       -1.6953382393
 H          2.2622463607        1.0839671378        3.0433237008
 H          2.0626153405       -1.0519615728        4.0864228094
 H          1.2166923001       -3.3608593126        3.9334786980
 H          0.1313373997       -4.1564481311        1.8682882876
 H         -0.9233223504       -3.6041082895       -0.1844760519
 C          0.6633837295       -3.1953819989       -1.5438950818
 C          2.1061722496       -2.8013646591       -1.5954130917
 C          1.7294429394       -4.2081690193       -1.2458416926
 H          1.9147642891       -4.9893183489       -1.9672436131
 H          1.8503149594       -4.5151626500       -0.2179637528
 H          2.5317767395       -2.5988886686       -2.5658522517
 H          2.4898076497       -2.1633380897       -0.8141801314
 H          0.1580350094       -3.2850556582       -2.4995826718
