  62
        -98.94382017
 C          1.3017769824        1.4238399174        0.6076437380
 C          2.0977809695        1.0231053566       -0.4941286868
 C          3.1367060870        0.0227977516       -0.2051724311
 C          3.2632652346       -0.4643564907        1.0414198590
 C          4.2424041266       -1.5230435296        1.4563288624
 C          3.6239704625       -2.9242039403        1.3555817854
 C          2.9287447373       -3.2063931993        0.0229437671
 H          2.5780874792       -4.2408522005        0.0555455976
 H          2.0353712456       -2.5812468487       -0.0603120567
 C          3.8162341417       -3.0082132518       -1.2139662930
 H          3.6517585940       -3.8458597379       -1.8951673369
 H          4.8672052183       -3.0285862822       -0.9219077688
 C          3.5330910659       -1.7303792802       -2.0061970588
 H          2.4598330573       -1.6549049068       -2.2020474722
 H          4.0383176155       -1.8111130187       -2.9725799975
 C          3.9975979856       -0.4225326822       -1.3529297272
 H          5.0408972399       -0.5141518157       -1.0441428860
 H          3.9278776858        0.3676276442       -2.1062712888
 H          2.8838366630       -3.0363742650        2.1515190445
 H          4.4131307685       -3.6611564500        1.5181343529
 H          4.5305139639       -1.3382009278        2.4928526783
 H          5.1274900021       -1.4591219663        0.8263301337
 O          2.4688670012       -0.0725655776        2.0699891728
 C          1.4470086680        0.8411654120        1.8683101662
 O          0.7418460889        1.0491451160        2.8771569073
 O          1.9570834873        1.4659807209       -1.6630565686
 C          0.1340293073        2.3805458021        0.4362697306
 C         -0.7129822625        1.9350752309       -0.7323400610
 C         -1.2274089185        2.7849839924       -1.7019657044
 C         -2.0153079039        2.2799837112       -2.7228968335
 C         -2.3201864072        0.9328431125       -2.7927441690
 C         -1.8063110512        0.0735463444       -1.8276224091
 C         -1.0166590187        0.5825600018       -0.8119931521
 H         -0.5958763216       -0.0954858514       -0.0858461319
 N         -2.0698227156       -1.3036888435       -1.8565169064
 S         -2.1627066375       -2.1643687406       -0.4288305123
 O         -0.8497210914       -2.3642361585        0.1317668979
 O         -2.8835275015       -3.3674513777       -0.7875763595
 C         -3.1731173943       -1.1592016377        0.6452774894
 C         -2.6370755203       -0.5519701707        1.7619625099
 C         -3.4495155347        0.2601462278        2.5383010230
 C         -4.7770524373        0.4488732219        2.1884504657
 C         -5.3048839628       -0.1769137381        1.0688505243
 C         -4.4968526701       -0.9860454952        0.2880298645
 H         -4.8730647575       -1.4975922732       -0.5828955452
 H         -6.3393853727       -0.0332147860        0.8020228073
 H         -5.4026337164        1.0850414573        2.7943654327
 H         -3.0303871533        0.7437680732        3.4065310621
 H         -1.5993049792       -0.7094777185        2.0136181800
 H         -2.7515814040       -1.6036969575       -2.5367242270
 H         -2.9333569571        0.5449961160       -3.5913605805
 H         -2.4010574813        2.9489801424       -3.4770985615
 H         -0.9960425020        3.8369721536       -1.6741399620
 H         -0.4743650833        2.2400632468        1.3462485922
 C          0.5093354360        3.8546631469        0.3961589815
 C          1.8270096142        4.3367919848        0.9238342482
 C          1.5419476783        4.3947033090       -0.5453775053
 H          1.3692565992        5.3620920487       -0.9942264883
 H          2.0370222642        3.6900407837       -1.1938768982
 H          1.8477106705        5.2592784554        1.4848449017
 H          2.5264007931        3.5934316330        1.2792471980
 H         -0.3440817777        4.4946068654        0.5980521953
