  62
        -98.94796798
 C          1.2475510455        0.7885157709        0.4060504451
 C          2.0788435761        0.5914760629       -0.7223222444
 C          3.0262525626       -0.5259949100       -0.6255392807
 C          3.0139574788       -1.3240598999        0.4573482171
 C          3.8972119710       -2.5207407264        0.6858682191
 C          5.2809536297       -2.1779598442        1.2550917783
 C          6.2445365091       -1.5163612877        0.2689889498
 H          7.2343752665       -1.5327461206        0.7293735788
 H          6.2983364682       -2.1155553056       -0.6404629343
 C          5.8893551692       -0.0661323058       -0.0874227617
 H          6.7888474079        0.5514660697       -0.0378888497
 H          5.1878403041        0.3287682023        0.6509114321
 C          5.2913883034        0.1153306610       -1.4825693380
 H          5.0439319170        1.1715426823       -1.6148697100
 H          6.0330932026       -0.1543643279       -2.2375813734
 C          4.0184158631       -0.7034191065       -1.7349675377
 H          3.5524685623       -0.3421214450       -2.6552221769
 H          4.2658733289       -1.7575621341       -1.8602892786
 H          5.7309518901       -3.1121443147        1.5990061652
 H          5.1494953446       -1.5319607673        2.1262147288
 H          3.3752796241       -3.1582144310        1.4032315500
 H          4.0112246324       -3.0741544716       -0.2469233445
 O          2.1525593183       -1.1400947957        1.4933401197
 C          1.2561150205       -0.0840633071        1.4936178619
 O          0.5240713030       -0.0311327363        2.5042862745
 H         -0.8369517797       -0.3889101646       -0.3362644349
 C         -1.2584594136        0.4351464902       -0.8908581620
 C         -0.7899402737        1.7221404684       -0.6673270753
 C         -1.3248944444        2.7604638523       -1.4195339544
 C         -2.2937671811        2.5031871924       -2.3743996790
 C         -2.7697421747        1.2208208184       -2.5806010889
 C         -2.2444817682        0.1764471927       -1.8283522288
 N         -2.6973753070       -1.1421463849       -1.9887077097
 S         -2.8244981027       -2.1276908356       -0.6423643837
 O         -1.5226599967       -2.5885591638       -0.2280531581
 O         -3.7563394889       -3.1594551124       -1.0471282181
 C         -3.5776489642       -1.0952098711        0.6029748437
 C         -4.9035110274       -0.7525144896        0.4136355318
 C         -5.5188682560        0.0896576494        1.3240046176
 C         -4.7990147073        0.5803125048        2.4033393839
 C         -3.4724862933        0.2227703295        2.5826711578
 C         -2.8510859174       -0.6235713294        1.6766156358
 H         -1.8173342478       -0.9074847228        1.8011120953
 H         -2.9035925284        0.5975496076        3.4188628278
 H         -5.2737470195        1.2418903537        3.1106211938
 H         -6.5527327601        0.3634889491        1.1892490321
 H         -5.4311364356       -1.1641295702       -0.4314227367
 H         -3.4835893120       -1.2515659534       -2.6121436127
 H         -3.5310250141        1.0253999958       -3.3198805780
 H         -2.6929024937        3.3166905017       -2.9607300464
 H         -0.9780794690        3.7687904717       -1.2639224570
 C          0.2405768971        1.9230707232        0.4186137634
 H         -0.2830405188        1.8515776422        1.3843188070
 C          0.9441365015        3.2624057797        0.3440281715
 C          0.3578428631        4.4638025586        1.0208931715
 C          1.5834551711        3.8107905073        1.5833355356
 H          2.5311136502        4.3201798886        1.4932828922
 H          1.4858326976        3.2296888720        2.4892660608
 H          0.4665909770        5.4272461100        0.5460640273
 H         -0.5721502498        4.3345741381        1.5535421639
 H          1.4680999887        3.4043383392       -0.5938491481
 O          2.0337483708        1.3061138554       -1.7574922174
