  62
        -98.94648673
 C          1.4193486115        1.5667824935       -0.4213561016
 C          1.2693351556        0.2446569034       -0.9099499903
 C          2.4689358757       -0.6021319681       -0.8373264446
 C          3.6302659787       -0.0964399442       -0.3864977639
 C          4.9548474585       -0.8099733830       -0.3393776649
 C          5.1713071944       -1.6723276288        0.9106733346
 C          4.3369980989       -2.9522267109        0.9635050220
 H          4.4712123532       -3.5126215694        0.0377637918
 H          4.7343876099       -3.5638714712        1.7758701300
 C          2.8415988024       -2.7124834823        1.2117026524
 H          2.6900724621       -1.7019367700        1.5989206467
 H          2.4796949513       -3.3980664906        1.9816490686
 C          1.9451462928       -2.9031999503       -0.0118722946
 H          1.9555532354       -3.9539813675       -0.3128706903
 H          0.9272567970       -2.6429993316        0.2911291648
 C          2.3277750495       -2.0429428594       -1.2237676705
 H          3.2507443293       -2.4134268179       -1.6705371669
 H          1.5253047500       -2.1111177827       -1.9623230693
 H          4.9625246851       -1.0663293097        1.7953303599
 H          6.2279194861       -1.9487021992        0.9377922012
 H          5.0645338268       -1.4288708014       -1.2305397513
 H          5.7232382869       -0.0338632516       -0.3577728041
 O          3.7412210088        1.1854357915        0.0527418771
 C          2.6413946097        2.0256185397        0.0800126768
 O          2.8810535153        3.1571294632        0.5502510913
 H         -1.3044629433        0.4364064659        0.0218725318
 C         -1.4095061177        1.1695099277        0.8038755828
 C         -0.6493336183        2.3293305003        0.7584131512
 C         -0.7747213449        3.2522363353        1.7905845836
 C         -1.6407415883        3.0149210117        2.8433130224
 C         -2.3911808428        1.8537647839        2.8892731781
 C         -2.2692429751        0.9228344607        1.8635385608
 N         -3.0338957011       -0.2519208779        1.8588840834
 S         -2.3916983661       -1.6721145391        1.2444726438
 O         -3.2453851865       -2.7093093933        1.7926918484
 O         -0.9885509373       -1.8006242090        1.5619348929
 C         -2.6652392430       -1.6007282304       -0.5126265491
 C         -1.9082935765       -2.4222631139       -1.3217365905
 C         -2.1339993314       -2.4112001548       -2.6883612280
 C         -3.1103613872       -1.5842034370       -3.2195226152
 C         -3.8676819656       -0.7702469586       -2.3917542444
 C         -3.6486972050       -0.7782964411       -1.0236793943
 H         -4.2126657099       -0.1478543109       -0.3562383898
 H         -4.6242093622       -0.1241494569       -2.8078860856
 H         -3.2781388568       -1.5708468748       -4.2852067115
 H         -1.5412651922       -3.0411265961       -3.3324472721
 H         -1.1478038352       -3.0410503310       -0.8732668434
 H         -3.5856180830       -0.4159535270        2.6879753849
 H         -3.0635187693        1.6657078757        3.7126108969
 H         -1.7287932722        3.7385579736        3.6396320902
 H         -0.1767769007        4.1519421745        1.7698633873
 C          0.2871180291        2.5832537927       -0.3983682989
 H          0.7688637046        3.5562415888       -0.2314185482
 C         -0.4781423395        2.6445996073       -1.7072105919
 C         -1.2675297255        3.8763683000       -2.0287445508
 C         -0.0106045350        3.5718765971       -2.7863170291
 H         -0.0891661992        3.2476217163       -3.8129753504
 H          0.8654558696        4.1716063974       -2.5847729604
 H         -1.2440739573        4.6862890692       -1.3153293213
 H         -2.2130514480        3.7629457437       -2.5358242764
 H         -0.8836846157        1.6895579036       -2.0134050124
 O          0.2122034536       -0.2227521623       -1.4085083437
