  62
        -98.93691441
 C          0.8321877934        1.2467773141       -0.1021998344
 C          1.7634588221        0.9608662985        0.9264828656
 C          2.6611397684       -0.1838270425        0.7099851994
 C          2.5426017452       -0.9063509632       -0.4162908722
 C          3.3701083259       -2.0883662825       -0.8542947767
 C          4.8927795092       -1.9882109130       -0.6704362607
 C          5.4769315081       -0.5714404026       -0.7684618560
 H          6.3143560664       -0.5810061780       -1.4688608310
 H          4.7298892319        0.1179672901       -1.1657583612
 C          5.9948035813       -0.0474856052        0.5735465222
 H          6.5355480251       -0.8518638232        1.0770296425
 H          6.7098772359        0.7569448768        0.3845241520
 C          4.9292543966        0.5071129297        1.5187026097
 H          4.5552454317        1.4607310260        1.1366530295
 H          5.4066151713        0.7140132216        2.4795906530
 C          3.7144821572       -0.4042582128        1.7571391556
 H          4.0112053931       -1.4483433783        1.8150163613
 H          3.2613114241       -0.1140210202        2.7087108468
 H          5.1707068984       -2.4158850335        0.2918897199
 H          5.3451778090       -2.6196428252       -1.4368973950
 H          3.0100320568       -2.9758995423       -0.3294997788
 H          3.1383307764       -2.2183738890       -1.9138093679
 O          1.5871053423       -0.6410419460       -1.3508645286
 C          0.7250589661        0.4418196334       -1.2367870707
 O         -0.0605632366        0.5611949375       -2.1959502674
 H         -1.4375712881        0.1410792574        0.1307268986
 C         -2.0201339694        0.9963749528        0.4382875391
 C         -1.4478586139        2.2579086317        0.4397735345
 C         -2.2289518026        3.3428306828        0.8321404491
 C         -3.5454451948        3.1664518296        1.2102860692
 C         -4.1138319185        1.9049137236        1.2022856906
 C         -3.3457685948        0.8154356722        0.8130045885
 N         -3.8835932500       -0.4804891485        0.8321540146
 S         -3.5473269548       -1.5398226717       -0.4193632007
 O         -3.4729877454       -0.8599698503       -1.6900928345
 O         -4.5810217319       -2.5505682270       -0.3105856481
 C         -1.9969926668       -2.2959457188        0.0101494452
 C         -1.7391517896       -2.5846012790        1.3358326389
 C         -0.5689909299       -3.2518933892        1.6581726034
 C          0.3079630404       -3.6324881434        0.6540503450
 C          0.0326571112       -3.3377775514       -0.6718818459
 C         -1.1300172865       -2.6587952860       -0.9999082071
 H         -1.3697509857       -2.3866435396       -2.0158603165
 H          0.7151488688       -3.6280927101       -1.4542986920
 H          1.2100648674       -4.1661358279        0.9096099744
 H         -0.3458261256       -3.4768278226        2.6886596236
 H         -2.4473930024       -2.2788223082        2.0879049637
 H         -4.8559827734       -0.5308927208        1.1014289370
 H         -5.1421430712        1.7607973324        1.4969976704
 H         -4.1374710109        4.0164929999        1.5128773343
 H         -1.7936658951        4.3294928965        0.8418586474
 C         -0.0066647652        2.4972044449        0.0497207504
 H          0.4612207122        3.0520405615        0.8773986167
 C          0.0519808019        3.3611105494       -1.2001101248
 C          0.1841092532        4.8499439627       -1.0984461643
 C          1.3436969926        4.0260096240       -1.5686556967
 H          1.6259377244        4.0624708616       -2.6100066134
 H          2.1784288738        3.8924829736       -0.8953476665
 H          0.2557491156        5.2872514615       -0.1139211339
 H         -0.3376315772        5.4621375709       -1.8180608095
 H         -0.5430938715        2.9600341059       -2.0123739481
 O          1.8541290721        1.6502577451        1.9782244972
