  62
        -98.94429035
 C         -2.1117378779       -1.3904080209        0.0043818116
 C         -2.4301021692       -0.4250035753       -0.9812094039
 C         -3.7755483584        0.1637675064       -0.8945699634
 C         -4.6164348619       -0.2335114403        0.0766556603
 C         -5.9876986602        0.3282608051        0.3123024844
 C         -5.9441811467        1.5048473451        1.2973893175
 C         -4.8824307615        2.5527500273        0.9628970853
 H         -4.9660012923        3.3488162464        1.7060253947
 H         -3.8913116520        2.1080915590        1.0809704509
 C         -5.0037474716        3.1534028177       -0.4446249056
 H         -6.0026588780        2.9686299506       -0.8415261642
 H         -4.8778772032        4.2359863982       -0.3748679620
 C         -3.9604600420        2.6478950610       -1.4428594889
 H         -2.9617832446        2.7467257304       -1.0090826715
 H         -3.9975747410        3.2902705513       -2.3269105935
 C         -4.1399247911        1.2009432647       -1.9196479201
 H         -5.1630795654        1.0536584135       -2.2707938209
 H         -3.4613012485        1.0427327167       -2.7628618698
 H         -6.9287533956        1.9756406566        1.3166380331
 H         -5.7349280107        1.1135133973        2.2956646747
 H         -6.4114872321        0.6507845543       -0.6367227291
 H         -6.6149483974       -0.4607403869        0.7306059781
 O         -4.2850353410       -1.1745922019        0.9956650493
 C         -3.0336486411       -1.7634393337        0.9892411038
 O         -2.8624321469       -2.6035717721        1.8947547758
 H          0.2919413059        0.1974353340       -0.9099943383
 C          0.7152215431       -0.0553807016        0.0506287472
 C          0.2750455609       -1.1954123256        0.7083023067
 C          0.8162197650       -1.4959847243        1.9529022743
 C          1.7650815875       -0.6686319564        2.5283807489
 C          2.1953151032        0.4715335430        1.8741711439
 C          1.6615340669        0.7785880506        0.6287096801
 N          2.0949900339        1.9311094137       -0.0478839369
 S          3.7405963007        2.2252564625       -0.1003343612
 O          4.1556033746        2.8706456778        1.1210058385
 O          3.9580902481        2.9798317771       -1.3146925492
 C          4.5016075735        0.6148452620       -0.2154215033
 C          4.1534202387       -0.1979723620       -1.2761169119
 C          4.7112126728       -1.4629470780       -1.3612515885
 C          5.6028011460       -1.8920507609       -0.3899120421
 C          5.9465336050       -1.0620022643        0.6654180149
 C          5.3900673712        0.2038170924        0.7570400387
 H          5.6253086009        0.8799936305        1.5628177942
 H          6.6414198556       -1.3971849203        1.4184262282
 H          6.0313484095       -2.8794654029       -0.4576425769
 H          4.4450854134       -2.1099274719       -2.1815970436
 H          3.4591010120        0.1640164568       -2.0175384090
 H          1.6633200960        2.0567833106       -0.9517223834
 H          2.9242601325        1.1340364218        2.3123200184
 H          2.1725500343       -0.9123952927        3.4975574644
 H          0.4746242104       -2.3772801731        2.4760827255
 C         -0.7643298738       -2.0941417805        0.0813057118
 H         -0.9177168376       -2.9465744405        0.7558924504
 C         -0.2961515033       -2.6255692588       -1.2601308521
 C          0.7351218184       -3.7114225973       -1.2897215662
 C         -0.6826205957       -4.0130227768       -1.6710374150
 H         -0.9126758382       -4.1970263661       -2.7098427036
 H         -1.2862926239       -4.5880523920       -0.9837069103
 H          1.4813782723       -3.6908427483       -2.0686819466
 H          1.0956179086       -4.0845687066       -0.3432677406
 H         -0.2600904693       -1.8724170317       -2.0355722956
 O         -1.6502681848       -0.0540103903       -1.9000681176
