  62
        -98.94637553
 C         -1.7892121679       -0.7319023285        0.2530256764
 C         -3.0892840505       -0.9796562066        0.7549092088
 C         -4.0099780359        0.1623752897        0.7318948522
 C         -3.5826547694        1.3554919296        0.2795162497
 C         -4.3954787098        2.6201572894        0.2164362724
 C         -5.2742853142        2.7357364623       -1.0366041478
 C         -6.4962763833        1.8167747300       -1.0616294342
 H         -7.0618817752        1.9403281853       -0.1375523678
 H         -7.1340080459        2.1542580245       -1.8810987022
 C         -6.1680794741        0.3319491954       -1.2719415662
 H         -6.8415640556       -0.0872596932       -2.0229129366
 H         -5.1530370570        0.2346879372       -1.6641890776
 C         -6.2977043062       -0.5304470959       -0.0163286967
 H         -6.0053797116       -1.5523837475       -0.2712606947
 H         -7.3402785591       -0.5501600583        0.3088489924
 C         -5.4278698304       -0.0679614562        1.1599015326
 H         -5.4232087064       -0.8586546343        1.9142235102
 H         -5.8445690853        0.8361796003        1.6031299440
 H         -4.6558605760        2.5430193048       -1.9163346323
 H         -5.6229305324        3.7693733362       -1.0956899861
 H         -5.0185216752        2.7007891324        1.1075629677
 H         -3.6827511023        3.4475095451        0.2137191184
 O         -2.3148351825        1.5592469327       -0.1676759537
 C         -1.3954623785        0.5211354478       -0.2141908478
 O         -0.2837722686        0.8421089227       -0.6741695607
 O         -3.4580011874       -2.0965827335        1.2069592928
 C         -0.7889790594       -1.8723193293        0.2070237381
 C          0.4583298308       -1.5052361359        0.9707083229
 C          0.3340447894       -1.0716123341        2.2892474641
 C          1.4472333861       -0.7233453970        3.0280935002
 C          2.7106792383       -0.7919807137        2.4656154965
 C          2.8470161321       -1.2299712305        1.1550573349
 C          1.7262277477       -1.5941232851        0.4191580254
 H          1.8664987777       -1.9246483727       -0.5958292214
 N          4.1190799221       -1.3374815948        0.5605290477
 S          4.4425002481       -0.5089134283       -0.8586656012
 O          3.5470127699       -0.9433862221       -1.8979532570
 O          5.8526579642       -0.7303735427       -1.0963137055
 C          4.1756389307        1.2062907942       -0.4475154540
 C          2.8884571089        1.7007588490       -0.3839391919
 C          2.7032220739        3.0188564861        0.0058670780
 C          3.7938764504        3.8128813800        0.3233177136
 C          5.0803140618        3.2987899127        0.2540753441
 C          5.2743927609        1.9823788298       -0.1296580495
 H          6.2553295345        1.5407010197       -0.2010043876
 H          5.9283067143        3.9176828844        0.4996348186
 H          3.6394388530        4.8370633742        0.6248563354
 H          1.6977979806        3.4061246929        0.0563901999
 H          2.0451060299        1.0766073641       -0.6346149011
 H          4.8817597384       -1.1907118747        1.2074354359
 H          3.5826184472       -0.5140317210        3.0382116072
 H          1.3325221663       -0.3888588806        4.0480755985
 H         -0.6539381508       -1.0105299015        2.7253629967
 H         -1.2768571207       -2.7100963725        0.7276402112
 C         -0.5268169473       -2.2810850309       -1.2272176011
 C         -0.1212468158       -3.6872650313       -1.5486934447
 C         -1.4924883024       -3.2015945239       -1.9087280560
 H         -1.7240260111       -3.0287992817       -2.9491861624
 H         -2.3308032981       -3.5579997974       -1.3278148861
 H          0.5945328618       -3.8457638650       -2.3415108545
 H         -0.0286409911       -4.3809630904       -0.7266957385
 H         -0.0975603511       -1.4812396245       -1.8216770196
