  62
        -98.94468053
 C         -2.5739587424        0.1755100789        0.3587564726
 C         -2.1595276916        0.7138578072       -0.8839086079
 C         -1.6855642008        2.1047450290       -0.8522948618
 C         -1.6554158636        2.7651890738        0.3190538022
 C         -1.1781774919        4.1771202677        0.5002455196
 C          0.3130894201        4.2319511361        0.8556077857
 C          1.2059463702        3.4112932158       -0.0756099028
 H          2.2399067491        3.5812738007        0.2353264947
 H          1.0060830062        2.3469842719        0.0735302657
 C          1.0582481407        3.7486818151       -1.5658055219
 H          0.5981973594        4.7314828315       -1.6812203639
 H          2.0548817606        3.8000641641       -2.0089267590
 C          0.2683474983        2.7137969993       -2.3699606426
 H          0.4465963235        2.8984774432       -3.4329937307
 H          0.6442174813        1.7141439835       -2.1380377642
 C         -1.2504547816        2.7177591228       -2.1529770860
 H         -1.6366284097        3.7353963747       -2.2491638726
 H         -1.7001099581        2.1018218177       -2.9373117529
 H          0.6310954966        5.2765865682        0.8395481014
 H          0.4428423653        3.8503306829        1.8713304286
 H         -1.3639692257        4.7348127692       -0.4157699840
 H         -1.7512094625        4.6280232183        1.3128301273
 O         -2.0461187756        2.2084327384        1.4959180247
 C         -2.4883673764        0.8977088106        1.5470891038
 O         -2.7848577199        0.4975542941        2.6939790642
 O         -2.2033491072        0.0726636324       -1.9659912492
 C         -3.0386816140       -1.2679108815        0.4430314205
 C         -1.9126487959       -2.1783270758        0.0153366751
 C         -2.0780347492       -3.2840904018       -0.8076505491
 C         -0.9901207299       -4.0623303473       -1.1691324751
 C          0.2844998819       -3.7494099415       -0.7326165649
 C          0.4556966862       -2.6544454622        0.1035440813
 C         -0.6351893536       -1.8955170025        0.4845332392
 H         -0.4815688125       -1.0457139211        1.1384347757
 N          1.7688525927       -2.2722700734        0.5158898602
 S          2.0550381485       -0.6157590193        0.4865784991
 O          1.7246569093        0.0046699030        1.7564554457
 O          1.4291235443       -0.0785445285       -0.6929644269
 C          3.8256378536       -0.6148581903        0.2755416434
 C          4.3288691926       -1.0294674684       -0.9427479891
 C          5.7018185537       -1.0712924546       -1.1224474976
 C          6.5454165307       -0.6997421772       -0.0855910809
 C          6.0260688982       -0.2838141536        1.1305570942
 C          4.6526159850       -0.2417966027        1.3163525461
 H          4.2031528795        0.0784064206        2.2428201365
 H          6.6834088589        0.0064609680        1.9344394921
 H          7.6141244790       -0.7333974810       -0.2271605584
 H          6.1089144359       -1.3927617995       -2.0676091746
 H          3.6325812864       -1.3012262425       -1.7191280757
 H          2.0437654016       -2.6642200358        1.4058892368
 H          1.1401405864       -4.3333091190       -1.0299855182
 H         -1.1376711981       -4.9143693213       -1.8150498420
 H         -3.0604881290       -3.5312341399       -1.1762331239
 H         -3.2418404105       -1.4580172670        1.5081786352
 C         -4.3164405142       -1.4726458910       -0.3430071295
 C         -5.3028587909       -2.5181851253        0.0807630878
 C         -5.6180847249       -1.0667615925        0.2780532087
 H         -6.3677439465       -0.6087885520       -0.3493010639
 H         -5.5829618587       -0.6645485541        1.2804438325
 H         -5.8423296888       -3.0575811754       -0.6829458888
 H         -5.0644967385       -3.1060848902        0.9543146485
 H         -4.1859485752       -1.2847943716       -1.4022538734
