  62
        -98.93915456
 C         -1.8478307706       -0.8495590108       -0.2052195794
 C         -2.4438367107       -0.2417823002        0.9224348203
 C         -3.5385580709        0.7085913995        0.6604449998
 C         -3.8997187710        0.9644404486       -0.6110873604
 C         -4.9418231712        1.9055661181       -1.1786543609
 C         -6.0288978012        2.4999398685       -0.2865651012
 C         -7.0338021110        1.4871330886        0.2609489195
 H         -7.7025275711        2.0090632589        0.9490026592
 H         -7.6375145810        1.1126848180       -0.5695741302
 C         -6.4313085408        0.2792607492        0.9742477402
 H         -7.2559666406       -0.3509928108        1.3180001906
 H         -5.8490535407       -0.3127542412        0.2651599005
 C         -5.5582984608        0.6031431901        2.1851100699
 H         -5.3362143406       -0.3400370796        2.6913796205
 H         -6.1145197708        1.2331954604        2.8818044596
 C         -4.2154709009        1.2858003201        1.8702471394
 H         -3.5410562108        1.1084736008        2.7132308895
 H         -4.3324313511        2.3622255300        1.7679118788
 H         -6.5823268414        3.2116994180       -0.9053033316
 H         -5.5832163613        3.0694480190        0.5237508884
 H         -4.3816437514        2.7286986679       -1.6364818414
 H         -5.4141773111        1.3610223275       -2.0024077105
 O         -3.2674023809        0.3798638581       -1.6708653500
 C         -2.2391740408       -0.5342475516       -1.5051137295
 O         -1.7709898808       -0.9788730822       -2.5692436493
 O         -2.0684442906       -0.4716152594        2.1045656804
 C         -0.7261972205       -1.8505114704        0.0015766012
 C          0.5472917294       -1.3424427806       -0.6287089692
 C          1.3694511195       -2.1213472510       -1.4315171987
 C          2.5236098994       -1.5879007411       -1.9805214591
 C          2.8881341792       -0.2777529709       -1.7344075400
 C          2.0831102891        0.5042811595       -0.9146451804
 C          0.9300367892       -0.0324241304       -0.3643300900
 H          0.3035677091        0.5801571499        0.2724502896
 N          2.4548827989        1.8311115097       -0.6398680213
 S          4.0560495588        2.1283053202       -0.2534148716
 O          4.0319862887        3.3068748008        0.5844948077
 O          4.8353512587        2.2344397496       -1.4617944417
 C          4.5850327591        0.7036349509        0.6817303193
 C          3.8994394393        0.3946450115        1.8399626495
 C          4.2739631295       -0.7269204080        2.5614093802
 C          5.3229805696       -1.5162672581        2.1148988906
 C          6.0055514595       -1.1889414987        0.9538882404
 C          5.6333652992       -0.0695711392        0.2266221897
 H          6.1331284991        0.2191640003       -0.6836165105
 H          6.8221633996       -1.8032233687        0.6106172007
 H          5.6088387898       -2.3911253177        2.6771055812
 H          3.7431082696       -0.9821762975        3.4645864504
 H          3.0900928092        1.0296635716        2.1638013992
 H          1.8279083088        2.3130991500       -0.0131071215
 H          3.7734335091        0.1565946090       -2.1696811403
 H          3.1463144395       -2.2013367814       -2.6133478188
 H          1.1024410597       -3.1444693111       -1.6375693381
 H         -0.5721434204       -1.8932705497        1.0902401112
 C         -1.1436617002       -3.2220123008       -0.4850111479
 C         -0.5740753500       -4.4552550503        0.1480046628
 C         -2.0001044800       -4.0726896304        0.4029619527
 H         -2.7843487400       -4.6623150608       -0.0476882269
 H         -2.2590228101       -3.6730095099        1.3727258124
 H         -0.3800918099       -5.3131070807       -0.4779380667
 H          0.1360757000       -4.3232522997        0.9499597927
 H         -1.3548539603       -3.2393530015       -1.5482734679
