  62
        -98.93741170
 C         -2.3081191396       -1.1097849539        0.1241874315
 C         -2.2551193068        0.0122087580       -0.7392363921
 C         -2.8868319867        1.2388412434       -0.2311191166
 C         -3.4090759444        1.2677924346        1.0071431330
 C         -4.0496777634        2.4543894077        1.6745055547
 C         -5.5266114042        2.6570075268        1.3085731804
 C         -5.7818379791        3.1748946552       -0.1074788587
 H         -6.8296450953        3.4780175344       -0.1532724224
 H         -5.1770827099        4.0654621749       -0.2811330656
 C         -5.5168603948        2.1457915228       -1.2151955300
 H         -5.4816004197        1.1442483618       -0.7802493106
 H         -6.3443712038        2.1566258397       -1.9280227539
 C         -4.2322822407        2.3857569384       -2.0082592768
 H         -4.1249071331        1.5808597399       -2.7397660236
 H         -4.3089049111        3.3288662900       -2.5537004609
 C         -2.9598554991        2.4199480062       -1.1517096855
 H         -2.9126139469        3.3480034196       -0.5822318474
 H         -2.0946651160        2.3750296619       -1.8178499774
 H         -6.0540662295        1.7111594976        1.4519492585
 H         -5.9401895489        3.3786902562        2.0166964810
 H         -3.4856336375        3.3566960789        1.4356731755
 H         -3.9814918485        2.2780195072        2.7502359598
 O         -3.3924128207        0.1844049332        1.8290025596
 C         -2.8635305729       -1.0219165940        1.4041624528
 O         -2.9460055543       -1.9386806312        2.2466680038
 O         -1.7095714252        0.0174231800       -1.8735132413
 C         -1.7368306228       -2.4725633845       -0.2389198921
 C         -0.2735987541       -2.5317651376        0.1175022185
 C          0.2358512391       -3.5444641089        0.9206455890
 C          1.5752063911       -3.5593796148        1.2716500384
 C          2.4320250606       -2.5661388552        0.8317023315
 C          1.9303024277       -1.5486017493        0.0319262430
 C          0.5909082508       -1.5390702240       -0.3239186997
 H          0.2085770467       -0.7444166631       -0.9484044746
 N          2.7958001024       -0.5167933715       -0.4117042226
 S          3.2440820685        0.5921892418        0.7856963930
 O          3.5866864896       -0.1325068748        1.9823366930
 O          2.2231048842        1.6120164479        0.9190729901
 C          4.7121481951        1.2951030899        0.0606388141
 C          5.8799106113        0.5581763386        0.1027034180
 C          7.0217352654        1.0783301127       -0.4847294300
 C          6.9764351833        2.3193145172       -1.1028476713
 C          5.7967314040        3.0468502712       -1.1372281002
 C          4.6506376641        2.5311192431       -0.5521188345
 H          3.7133440408        3.0642325633       -0.5490378235
 H          5.7641956882        4.0119544530       -1.6168424916
 H          7.8664585890        2.7229915176       -1.5591387026
 H          7.9412880435        0.5162342851       -0.4589994540
 H          5.8696143428       -0.3972164468        0.6003360652
 H          2.3614432809        0.0149511450       -1.1567525621
 H          3.4707112194       -2.5560151736        1.1168390023
 H          1.9549502438       -4.3511832624        1.8993381773
 H         -0.4302087609       -4.3119898197        1.2875388915
 H         -2.2641065807       -3.1874328021        0.4123605778
 C         -2.0243651728       -2.8740130115       -1.6796978724
 C         -0.9696468464       -3.0054191588       -2.7331078109
 C         -1.6153709983       -4.2323311434       -2.1681704694
 H         -2.3036812885       -4.7904836240       -2.7843585197
 H         -1.0262725313       -4.8405032320       -1.4981657473
 H         -1.2251871763       -2.6943651766       -3.7345307288
 H          0.0536703260       -2.7986536565       -2.4623524178
 H         -2.9902491027       -2.5086355853       -2.0134944247
