  62
        -98.94273586
 C          2.6906918771        1.2103430946        0.2099694872
 C          2.6661978082        0.3205025023       -0.8911625087
 C          3.7311685782       -0.6937387138       -0.9177611149
 C          4.6505398648       -0.7152955740        0.0638821213
 C          5.7515404928       -1.7274222790        0.1875958552
 C          5.3083725895       -2.9297666853        1.0331311423
 C          3.9589649950       -3.5153252778        0.6167662322
 H          3.7653696507       -4.3751281179        1.2617607066
 H          3.1742626397       -2.7816636150        0.8160951583
 C          3.8821784702       -3.9515922992       -0.8530055487
 H          4.8880472598       -4.0633330728       -1.2594326457
 H          3.4018043965       -4.9309960664       -0.9027329026
 C          3.0742882664       -3.0133567760       -1.7515412205
 H          2.0977322397       -2.8225257957       -1.2991166688
 H          2.9005493019       -3.5210327656       -2.7040992097
 C          3.7306700432       -1.6632142612       -2.0661488617
 H          4.7453390086       -1.8237855030       -2.4360283663
 H          3.1466610653       -1.1870663711       -2.8592082966
 H          6.0781160008       -3.7007317902        0.9659408171
 H          5.2359651844       -2.6116590343        2.0757241352
 H          6.0477643306       -2.0578332363       -0.8060634297
 H          6.6051185694       -1.2494628349        0.6711834665
 O          4.6509892509        0.1666356282        1.0959818870
 C          3.6676859537        1.1338731079        1.2053282537
 O          3.7716356020        1.8595686191        2.2145782641
 H         -0.4804512462        1.7260745058       -1.3102476880
 C         -0.6521582760        1.3835279693       -0.3022026534
 C          0.3099000567        1.5972543649        0.6716345404
 C          0.0700686910        1.1270833217        1.9603120860
 C         -1.1020122083        0.4601923118        2.2614877755
 C         -2.0552438355        0.2367471336        1.2825418543
 C         -1.8244265337        0.6978903618       -0.0059258893
 N         -2.7698324115        0.4476964135       -1.0120854949
 S         -4.3933809202        0.7180862261       -0.7070711690
 O         -4.9948267335        0.9165531492       -2.0077132923
 O         -4.5835290154        1.7788886523        0.2551309943
 C         -4.9694238730       -0.8266980674       -0.0335656186
 C         -4.7065889432       -1.9848252017       -0.7386728707
 C         -5.1603785064       -3.1929370211       -0.2340348928
 C         -5.8685692769       -3.2224423806        0.9582052329
 C         -6.1275053714       -2.0506791412        1.6524142206
 C         -5.6750759257       -0.8389389037        1.1536040972
 H         -5.8472786729        0.0961323807        1.6625348067
 H         -6.6783121972       -2.0756508016        2.5789595082
 H         -6.2205937276       -4.1644168492        1.3482467190
 H         -4.9599411786       -4.1063039716       -0.7707341246
 H         -4.1543229256       -1.9205586629       -1.6614536104
 H         -2.4981410123        0.7821758789       -1.9246688871
 H         -2.9695707140       -0.2869279547        1.5092244772
 H         -1.2752169829        0.1056108673        3.2662623312
 H          0.8220911249        1.2884926074        2.7207125641
 C          1.6235845843        2.2808220306        0.3785816462
 H          1.9115553688        2.8538414255        1.2701938231
 C          1.5783779115        3.2214318163       -0.8072013836
 C          0.8552474496        4.5275390266       -0.6798167008
 C          2.3518815176        4.5028245733       -0.7532187866
 H          2.8301832878        4.8539118078       -1.6553233091
 H          2.9119889691        4.7112506062        0.1466958041
 H          0.3967818986        4.7522443642        0.2715707794
 H          0.3041197579        4.8994058686       -1.5303399646
 H          1.5394187476        2.7102391114       -1.7609805258
 O          1.8095620921        0.3632140512       -1.8127171510
