  62
        -98.94686826
 C         -1.2771937299       -0.7455687393        0.6064137999
 C         -2.1491856800       -0.7326866489       -0.5081726701
 C         -2.9217712296        0.5026891113       -0.7029847300
 C         -2.7073672091        1.5515169912        0.1113528601
 C         -3.4550450387        2.8514564015        0.0516403701
 C         -4.6917076286        2.8242206019        0.9610871302
 C         -5.5682281591        1.5857173422        0.7742152903
 H         -5.0109092494        0.7035565820        1.0972463002
 H         -6.4242969290        1.6896250925        1.4442681503
 C         -6.0660875893        1.3713801024       -0.6619048197
 H         -5.9738761090        2.2988402724       -1.2282037597
 H         -7.1269662294        1.1145284828       -0.6301202996
 C         -5.3579306297        0.2451108522       -1.4172071498
 H         -5.3673388300       -0.6643548478       -0.8113458798
 H         -5.9251034998        0.0377682024       -2.3285009797
 C         -3.9093993996        0.5288892817       -1.8355039799
 H         -3.5975156500       -0.2652483684       -2.5205745399
 H         -3.8581242494        1.4800794017       -2.3698485099
 H         -5.2808810784        3.7225959121        0.7683165703
 H         -4.3568570086        2.8535868617        2.0005051802
 H         -2.7850971484        3.6475153413        0.3817045301
 H         -3.7503436387        3.0463704516       -0.9776399898
 O         -1.8056572591        1.5283078709        1.1249886500
 C         -1.0705657694        0.3861860606        1.3946516199
 O         -0.2757951993        0.5029881303        2.3506203898
 H          1.2715454703       -0.2014715801        0.0157902997
 C          1.3475866799       -1.1078296201       -0.5630015803
 C          0.5279801996       -2.1816588999       -0.2370799203
 C          0.6237134591       -3.3451356899       -0.9864688504
 C          1.4967003290       -3.4070362401       -2.0603074804
 C          2.2820105493       -2.3232272004       -2.4054576205
 C          2.2065371998       -1.1579284704       -1.6467617304
 N          3.0079218601       -0.0556968106       -1.9530127104
 S          2.8460446907        1.4588961194       -1.2813859204
 O          1.4660636209        1.8645141699       -1.1469287903
 O          3.6700738209        2.2953348291       -2.1293364704
 C          3.6428232008        1.2873060091        0.3020463696
 C          2.9323051009        1.3890574193        1.4799100396
 C          3.6040999909        1.2254692290        2.6823928396
 C          4.9655697909        0.9683314386        2.6873392594
 C          5.6675722607        0.8754305184        1.4943358194
 C          5.0020302507        1.0348202686        0.2909686594
 H          5.5094712706        0.9796106085       -0.6577733306
 H          6.7272639107        0.6774484280        1.5004959393
 H          5.4808063209        0.8407004984        3.6263217994
 H          3.0484870810        1.2946995192        3.6040765796
 H          1.8696941010        1.5797000396        1.4580013297
 H          3.4923572601       -0.0727649208       -2.8357471805
 H          2.9448113593       -2.3703810906       -3.2556560105
 H          1.5564562186       -4.3118622601       -2.6461010205
 H          0.0052012088       -4.1938259497       -0.7458315103
 C         -0.4372483303       -1.9773047796        0.9062573298
 H          0.1481172699       -1.7336541498        1.8047618497
 C         -1.3119389907       -3.1762577993        1.1999446398
 C         -0.7814779410       -4.3004978695        2.0363616397
 C         -1.8221508406       -3.3778176391        2.5940830998
 H         -2.8270113807       -3.7500151188        2.7262632699
 H         -1.5223150303       -2.6579677993        3.3420436298
 H          0.2270089391       -4.2109434498        2.4106631396
 H         -1.0730769813       -5.3098800894        1.7889339297
 H         -1.9832782508       -3.4153103190        0.3838434498
 O         -2.2845525504       -1.7021355889       -1.3004639601
