  62
        -98.94114221
 C         -2.3069981883       -0.6410484340       -0.2754996658
 C         -3.5485780698       -0.9805871830        0.3164319483
 C         -4.4072714096        0.1450384794        0.7054253798
 C         -3.9633655782        1.4023995260        0.5244769685
 C         -4.7528735139        2.6413587350        0.8309385494
 C         -5.5599465503        3.1032968661       -0.3907183871
 C         -6.3722864473        1.9902151850       -1.0526860471
 H         -6.9227693883        2.4393605994       -1.8821157337
 H         -5.6869290510        1.2558153614       -1.4817758815
 C         -7.3549869365        1.2766749614       -0.1138539627
 H         -8.3120632590        1.1652497362       -0.6277050272
 H         -7.5320378867        1.8882067190        0.7715869386
 C         -6.9156006353       -0.1236552573        0.3175059658
 H         -7.7679341582       -0.6164013794        0.7927369976
 H         -6.6477307573       -0.7113653563       -0.5640676283
 C         -5.7454976832       -0.1797526218        1.3077289317
 H         -5.9526120346        0.4708902546        2.1598243868
 H         -5.6674279420       -1.2082476249        1.6722115873
 H         -4.8654522867        3.5071553488       -1.1310037815
 H         -6.2284197589        3.9074121567       -0.0777978140
 H         -5.4208175832        2.4422646024        1.6667903575
 H         -4.0555290245        3.4312365552        1.1153337848
 O         -2.7485342294        1.6896791480       -0.0082946781
 C         -1.8918596577        0.6818327429       -0.4280670954
 O         -0.8204994842        1.0939502590       -0.9129437978
 H          1.1867381429       -0.9393520363       -1.2755210901
 C          1.0702422891       -1.2685913746       -0.2551507024
 C         -0.1587013670       -1.7333623113        0.1822296629
 C         -0.2883816223       -2.1271528637        1.5118954616
 C          0.7868870038       -2.0571303744        2.3759605048
 C          2.0145270255       -1.5919177106        1.9357049526
 C          2.1517773888       -1.1889927379        0.6149816558
 N          3.3972160536       -0.7292864250        0.1413716184
 S          4.2694649054        0.3484726393        1.1055010458
 O          4.8453051918       -0.3848111845        2.2055106717
 O          3.4537832261        1.4874555046        1.4661120122
 C          5.5550208857        0.8285820364       -0.0309178885
 C          6.6569178020        0.0061127634       -0.1698415478
 C          7.6461834486        0.3593441308       -1.0735186721
 C          7.5176767787        1.5218695151       -1.8190924730
 C          6.4064204834        2.3376389514       -1.6678385309
 C          5.4121352690        1.9892587468       -0.7669195451
 H          4.5342714238        2.5966456071       -0.6120536225
 H          6.3098985892        3.2420523730       -2.2468302794
 H          8.2892649531        1.7959226907       -2.5211327365
 H          8.5125467648       -0.2709248610       -1.1930756094
 H          6.7168213122       -0.8818729583        0.4372171074
 H          3.3146390080       -0.3534458706       -0.7944496395
 H          2.8573647616       -1.5207185229        2.6034940542
 H          0.6718254028       -2.3640874891        3.4049116229
 H         -1.2505578003       -2.4773650748        1.8600360130
 C         -1.3797587570       -1.7667936639       -0.7028466761
 H         -1.9300269721       -2.6932021202       -0.4879819702
 C         -1.0770154865       -1.7107482795       -2.1847179563
 C         -0.5128341234       -2.9190106777       -2.8688243695
 C         -1.9265140182       -2.4992071998       -3.1340971679
 H         -2.1652302287       -2.0643590168       -4.0931350483
 H         -2.7248996272       -3.0929802223       -2.7137873363
 H          0.2199675907       -2.7765998431       -3.6482818908
 H         -0.3495658944       -3.7993359460       -2.2659500951
 H         -0.7432523924       -0.7340347611       -2.5146986144
 O         -3.9203757775       -2.1692412710        0.5083425888
