  62
        -98.93019146
 C         -2.3533387138       -0.8303417203        0.2930125636
 C         -2.5023547213        0.5745514772        0.4014202282
 C         -3.7383327604        1.1667136190       -0.1388676642
 C         -4.6623655016        0.3617204804       -0.6953260332
 C         -5.9890530807        0.6693723915       -1.3582555048
 C         -6.6309672489        2.0468891486       -1.2175882472
 C         -7.1207664679        2.3818744915        0.1908755670
 H         -7.4604126828        3.4197823701        0.1973830319
 H         -7.9816206648        1.7483139956        0.4186494335
 C         -6.0989041442        2.1869751580        1.3081918034
 H         -5.8191948667        1.1333801639        1.3710952392
 H         -6.5825258947        2.4484076355        2.2533380620
 C         -4.8302815264        3.0292435858        1.1886998888
 H         -4.2672361053        2.9119188745        2.1187609137
 H         -5.0959929673        4.0836363533        1.0903862442
 C         -3.8904363373        2.6510638184        0.0308300773
 H         -4.2057835094        3.1135168351       -0.9016104100
 H         -2.8931446053        3.0352777449        0.2654218404
 H         -5.9546976372        2.8156110888       -1.5796545634
 H         -7.5014445115        2.0536001718       -1.8791543934
 H         -5.8407328969        0.4633300567       -2.4239524898
 H         -6.6873451383       -0.0903244857       -0.9929681242
 O         -4.4754555378       -0.9861962654       -0.7806345571
 C         -3.3363474175       -1.6202004724       -0.3022268849
 O         -3.3474198752       -2.8519796121       -0.4728138434
 O         -1.6302004723        1.3135845190        0.9361278945
 C         -1.0781688553       -1.4280593892        0.8584835707
 C         -0.0065483953       -1.5333491212       -0.1969896439
 C         -0.2620566759       -2.1213065850       -1.4322424876
 C          0.7376565547       -2.2108488433       -2.3832887664
 C          2.0033291972       -1.7149384986       -2.1250884230
 C          2.2711334775       -1.1300596427       -0.8925924953
 C          1.2655932909       -1.0435595886        0.0609710023
 H          1.4791724547       -0.5678611900        1.0062797928
 N          3.5628575213       -0.6637990168       -0.5938231227
 S          3.7427529609        0.7257480526        0.3500941749
 O          3.5033193645        0.3833469288        1.7290972074
 O          2.9529377478        1.8053013586       -0.1981601684
 C          5.4805775449        1.0415345557        0.1059019143
 C          6.3944389408        0.2958783539        0.8265952995
 C          7.7473015604        0.5162684912        0.6234213059
 C          8.1617997126        1.4728421901       -0.2916263128
 C          7.2331505353        2.2148185471       -1.0058122787
 C          5.8782278543        1.9983641456       -0.8084702967
 H          5.1202048099        2.5567441306       -1.3341354679
 H          7.5583319420        2.9601753800       -1.7136312645
 H          9.2153789336        1.6434592483       -0.4468938373
 H          8.4723027773       -0.0564537656        1.1788769550
 H          6.0252749007       -0.4289068816        1.5331784691
 H          4.1544579967       -0.6193268795       -1.4130878921
 H          2.7801211502       -1.7825695951       -2.8716325935
 H          0.5272472579       -2.6678202761       -3.3386348167
 H         -1.2488968933       -2.5096448383       -1.6342741881
 H         -0.7284742610       -0.6912325811        1.6004130652
 C         -1.3041950907       -2.7401096567        1.5982164513
 C         -0.8183636634       -4.0657828676        1.1028275992
 C         -0.1525711518       -3.4200188806        2.2782805040
 H         -0.3067495409       -3.8403181524        3.2605473316
 H          0.8293014934       -2.9953037106        2.1281115620
 H         -1.4541802375       -4.9218262034        1.2684544952
 H         -0.2842164395       -4.0963579704        0.1666624542
 H         -2.2524555258       -2.7451906992        2.1264823099
