  62
        -98.93799000
 C          2.5885381099        1.1611597853        0.5179000442
 C          3.4461223910        0.8623597142       -0.5702385544
 C          4.5668901941       -0.0404305829       -0.2653006962
 C          4.7328213823       -0.5179367580        0.9803072380
 C          5.8329863627       -1.4349440226        1.4413886392
 C          5.5583122732       -2.9211722353        1.1738561858
 C          5.6610247399       -3.3482834710       -0.2909326101
 H          6.6162256629       -3.0159832124       -0.6987222449
 H          5.6624341211       -4.4399991499       -0.3066885918
 C          4.5157327368       -2.8434657850       -1.1798290407
 H          4.1513893348       -3.6623738255       -1.8041677268
 H          3.6802183509       -2.5243980402       -0.5523032088
 C          4.8983753568       -1.6965253994       -2.1152157076
 H          5.6420630178       -2.0437502041       -2.8359344357
 H          4.0065967756       -1.3951404315       -2.6704050018
 C          5.4526793997       -0.4569526987       -1.4008414724
 H          5.4831604360        0.3667487651       -2.1182673927
 H          6.4644391650       -0.6485611230       -1.0443320368
 H          6.2875317327       -3.4957360097        1.7496904687
 H          4.5648899251       -3.1667723963        1.5563521135
 H          6.7729871454       -1.1463935655        0.9701867950
 H          5.9258397406       -1.2906138899        2.5199809882
 O          3.8960278741       -0.1938583787        2.0024814029
 C          2.8033715787        0.6283129921        1.7919751066
 O          2.1077067189        0.8224796586        2.8103395082
 O          3.3057156839        1.3115064735       -1.7354226619
 C          1.3682206507        2.0589295270        0.3920565595
 C          0.1692787475        1.2519414021       -0.0358681802
 C          0.1965161330        0.4732253144       -1.1890852304
 C         -0.9120293948       -0.2647074540       -1.5610528983
 C         -2.0633845042       -0.2494717684       -0.7925348578
 C         -2.1006437550        0.5211658458        0.3612533532
 C         -0.9876850742        1.2679850940        0.7285730906
 H         -1.0163340279        1.8580591904        1.6350891302
 N         -3.2562402282        0.5232299915        1.1577619461
 S         -4.7509465672        0.7344423837        0.4265555063
 O         -4.6414436317        1.5258219841       -0.7766519642
 O         -5.6060865863        1.2608981937        1.4674539021
 C         -5.2711831978       -0.9205488901        0.0280230103
 C         -5.2956422398       -1.8571789149        1.0427161187
 C         -5.7060998247       -3.1481579243        0.7513494956
 C         -6.0862023407       -3.4779136330       -0.5412371871
 C         -6.0600010230       -2.5249721279       -1.5478759176
 C         -5.6492656772       -1.2318439976       -1.2632835321
 H         -5.6073757414       -0.4598465248       -2.0152028218
 H         -6.3560309573       -2.7833910727       -2.5519296423
 H         -6.4045949938       -4.4838212858       -0.7651248368
 H         -5.7279189419       -3.8919603590        1.5315520553
 H         -4.9949588113       -1.5610166977        2.0339151895
 H         -3.1775652826        1.0768813843        1.9981790272
 H         -2.9276423536       -0.8261172460       -1.0787667622
 H         -0.8790627190       -0.8630175632       -2.4590175946
 H          1.0939688430        0.4583490015       -1.7886394276
 H          1.1742153579        2.4204804390        1.4144761326
 C          1.6141061002        3.2853135243       -0.4766801929
 C          0.9450402269        3.5281762761       -1.7926663852
 C          0.5502074381        4.3368579344       -0.5960556010
 H          0.8383829527        5.3761208512       -0.5487494873
 H         -0.4099706115        4.1246900931       -0.1484154704
 H          1.5299525120        3.9971033092       -2.5690291534
 H          0.2467734596        2.7928014890       -2.1596815171
 H          2.6354655000        3.6412008527       -0.3892354394
