  62
        -98.94105835
 C          1.7428157454       -0.9742106543       -0.2929511564
 C          2.1528879648        0.3737225397       -0.4445061932
 C          3.6010458148        0.5831394838       -0.5990301007
 C          4.4347889998       -0.4700812528       -0.6514315699
 C          5.9284422692       -0.4138245752       -0.8231659588
 C          6.6975766346       -0.1828926435        0.4847959840
 C          6.5961983437        1.2313419817        1.0577815060
 H          7.3493022518        1.3131469316        1.8440493335
 H          6.8538007672        1.9552829291        0.2840445000
 C          5.2238792251        1.5779307962        1.6522179656
 H          5.3582732583        2.0627002409        2.6218828874
 H          4.6608291862        0.6588608922        1.8309304184
 C          4.3786504334        2.5162746633        0.7904159247
 H          3.4174291531        2.6678926142        1.2890033697
 H          4.8722662345        3.4876363609        0.7135411458
 C          4.1016392622        1.9956426129       -0.6261631290
 H          3.3206806378        2.6158246319       -1.0733835071
 H          5.0011823991        2.0704320913       -1.2368539582
 H          6.3477835523       -0.9030031552        1.2281981662
 H          7.7502830433       -0.3961856832        0.2855895390
 H          6.1862679168        0.3655924398       -1.5406937080
 H          6.2304931425       -1.3795041138       -1.2342214580
 O          3.9925049229       -1.7533967172       -0.5740447314
 C          2.6501019901       -2.0343726243       -0.3783557588
 O          2.3897640685       -3.2521244342       -0.3121067500
 O          1.3715805080        1.3590708803       -0.4552103981
 C          0.2875544397       -1.3537254087       -0.0780161937
 C         -0.6058453592       -0.5784166899       -1.0134237201
 C         -0.4977524479       -0.8060353200       -2.3832397600
 C         -1.2931427526       -0.1183937418       -3.2785289404
 C         -2.2310966971        0.7937042388       -2.8263843387
 C         -2.3454620622        1.0286884795       -1.4620775136
 C         -1.5357430117        0.3451317782       -0.5647723314
 H         -1.6107245764        0.5840502409        0.4820834324
 N         -3.2841322429        1.9456398314       -0.9712054097
 S         -4.0345384146        1.6834757656        0.4933998352
 O         -5.2836341682        2.4087660219        0.3911797282
 O         -3.1789804668        2.0669198853        1.5876421505
 C         -4.3570819720       -0.0714292521        0.5592654425
 C         -5.0471955462       -0.6566752401       -0.4838766387
 C         -5.2962446089       -2.0187403205       -0.4426397994
 C         -4.8567189131       -2.7695085377        0.6370197172
 C         -4.1736574683       -2.1662338239        1.6812833022
 C         -3.9194540395       -0.8042923835        1.6432356552
 H         -3.3866148911       -0.2956910884        2.4310470379
 H         -3.8347500980       -2.7509724137        2.5218813403
 H         -5.0485434334       -3.8304716349        0.6665310636
 H         -5.8299878863       -2.4908939213       -1.2515415180
 H         -5.3835533377       -0.0462406796       -1.3058762916
 H         -3.9030726199        2.3463387389       -1.6593772318
 H         -2.8559939017        1.3311049453       -3.5233135229
 H         -1.1895783784       -0.2979937999       -4.3380504438
 H          0.2325595984       -1.5218790947       -2.7360602360
 H          0.2275254843       -2.4171022368       -0.3630220194
 C         -0.1661872853       -1.2672510633        1.3716425290
 C          0.7839340358       -1.5256081579        2.5013678963
 C          0.2463121124       -0.1458855564        2.2748903369
 H         -0.4808833157        0.2510360596        2.9690386505
 H          0.9054867134        0.6059049591        1.8700280598
 H          0.4286225931       -2.0852754775        3.3533314662
 H          1.8173448892       -1.7196230118        2.2524671118
 H         -1.1763533840       -1.6456557700        1.4969186278
