  62
        -98.94490023
 C          1.0646941699        1.4359000321       -0.6778481376
 C          2.3220646060        1.6797675942       -0.0645942536
 C          3.3260964746        0.6158535638       -0.1799293781
 C          3.0143134507       -0.5077277235       -0.8510545785
 C          3.9222316691       -1.6928418593       -1.0051001307
 C          3.7207486657       -2.7075010197        0.1289072002
 C          3.7170925892       -2.0852145652        1.5247753886
 H          2.8500384456       -1.4274612536        1.6198913190
 H          3.5873413921       -2.8973986633        2.2433335944
 C          4.9892708224       -1.2994236134        1.8717981704
 H          5.7960967492       -1.5822644446        1.1945664701
 H          5.3047459124       -1.5696301247        2.8818282008
 C          4.8217100764        0.2208292299        1.8498090590
 H          3.9570463699        0.5044319375        2.4552335057
 H          5.7056628745        0.6674709590        2.3131377013
 C          4.6646763375        0.8524228087        0.4609554270
 H          4.7535754464        1.9365836802        0.5770866000
 H          5.4703942985        0.5104296040       -0.1920137637
 H          2.7623119279       -3.2055968791       -0.0232017211
 H          4.5118099751       -3.4569276221        0.0651778347
 H          4.9549727401       -1.3490582890       -1.0196998127
 H          3.6970490004       -2.1751394717       -1.9575747439
 O          1.8099390031       -0.7011777467       -1.4417146291
 C          0.8053853986        0.2554784274       -1.3758591204
 O         -0.2320349771       -0.0789980995       -1.9798761234
 O          2.5941940491        2.7491495664        0.5452667450
 C          0.0222220055        2.5316458589       -0.5327339343
 C         -0.9242644629        2.2325367029        0.6056934574
 C         -1.0468965527        3.1078955711        1.6783007516
 C         -1.9188758310        2.8294717115        2.7159674038
 C         -2.6827481847        1.6771227485        2.7016156395
 C         -2.5606283914        0.7897418125        1.6366555168
 C         -1.6857627556        1.0718122905        0.5980621904
 H         -1.6028586837        0.3851842441       -0.2287292109
 N         -3.2812483401       -0.4087530525        1.6269937418
 S         -3.6522974974       -1.2296160647        0.2232802335
 O         -4.0500339657       -0.3327310079       -0.8364920275
 O         -4.6638901382       -2.1811256605        0.6403798951
 C         -2.1828377638       -2.1352697711       -0.2071151350
 C         -1.9964172697       -2.4886625386       -1.5272592491
 C         -0.8967837442       -3.2588343806       -1.8673667243
 C         -0.0063705115       -3.6598272861       -0.8854354044
 C         -0.2044372706       -3.2921342550        0.4362852182
 C         -1.3048975596       -2.5257347438        0.7834503880
 H         -1.4820897667       -2.2193870274        1.8015044755
 H          0.4955681080       -3.5965310287        1.1989391222
 H          0.8495424014       -4.2587923709       -1.1563874463
 H         -0.7333707959       -3.5315864786       -2.8976120185
 H         -2.7011462620       -2.1391825912       -2.2646746834
 H         -3.9808417941       -0.5166921076        2.3453624623
 H         -3.3644600421        1.4582782068        3.5091453592
 H         -2.0068221645        3.5173143017        3.5431649263
 H         -0.4446960437        4.0041996639        1.7001363807
 H          0.5908195731        3.4337418322       -0.2672880273
 C         -0.7575680488        2.8163373390       -1.8010524267
 C         -1.3339446762        4.1838562540       -2.0073236723
 C         -0.1704996162        3.7274378262       -2.8348089829
 H         -0.3328122453        3.4955573342       -3.8766065954
 H          0.7999100995        4.1555656570       -2.6288557247
 H         -2.3011264346        4.2668662734       -2.4790748329
 H         -1.1514469138        4.9261569664       -1.2449330585
 H         -1.3351165105        1.9707355935       -2.1523282729
