  62
        -98.94185022
 C          0.8333634524        1.3373918879        0.4759675363
 C          1.2624443798        0.7039090021       -0.7120435704
 C          2.2130890711       -0.4115294202       -0.5499504084
 C          2.5208452427       -0.8296289001        0.6898367624
 C          3.4972106495       -1.9045479950        1.0842253391
 C          4.8809821361       -1.2993326738        1.3771715059
 C          5.7911831976       -1.1603008893        0.1574866309
 H          6.6792420496       -0.6098727050        0.4765229971
 H          6.1181661833       -2.1523976357       -0.1607370574
 C          5.1700542368       -0.4400927678       -1.0421240085
 H          4.6161303753        0.4350585475       -0.6974319125
 H          5.9843859263       -0.0786175534       -1.6730412688
 C          4.2523559907       -1.3424941705       -1.8807639427
 H          4.3935632270       -2.3784945295       -1.5744060777
 H          4.5517814717       -1.2864954329       -2.9292666259
 C          2.7609383357       -0.9832210023       -1.8286018753
 H          2.5431052755       -0.2226729259       -2.5848925708
 H          2.1692584230       -1.8624219823       -2.0985168413
 H          4.7285087473       -0.3198758377        1.8380505597
 H          5.3908605621       -1.9277734946        2.1103470368
 H          3.1134242066       -2.3518367273        2.0039660353
 H          3.5644706116       -2.6714312716        0.3183117829
 O          1.9908283280       -0.2602288607        1.8098882184
 C          1.1778467012        0.8552109359        1.7373997852
 O          0.8285063401        1.3150645527        2.8445524124
 H         -1.7193106367        0.6245277446        1.0369295322
 C         -2.0860952288        1.1850697430        0.1887424556
 C         -1.3411063652        2.2539466551       -0.2960553383
 C         -1.8376614881        2.9807694780       -1.3697398790
 C         -3.0459585532        2.6334917078       -1.9487391942
 C         -3.7834290329        1.5685942728       -1.4669207898
 C         -3.3011897090        0.8432179615       -0.3819062724
 N         -4.0523192536       -0.2113745765        0.1524741896
 S         -3.3664262602       -1.4807600698        0.9741177049
 O         -4.4229784776       -2.4702568730        1.0243341108
 O         -2.8542030482       -1.0483528847        2.2502011156
 C         -2.0501265990       -2.1190520290       -0.0454837881
 C         -2.3153717250       -2.3961391562       -1.3721750914
 C         -1.3344109447       -2.9992457959       -2.1412111932
 C         -0.1162559802       -3.3306093841       -1.5687604038
 C          0.1386385324       -3.0391384181       -0.2382294411
 C         -0.8342156176       -2.4209177665        0.5307668063
 H         -0.6715374579       -2.1699749138        1.5680322597
 H          1.0864317525       -3.2926603642        0.2078666342
 H          0.6362660867       -3.8263961796       -2.1619549542
 H         -1.5248771333       -3.2182081407       -3.1794442306
 H         -3.2806345463       -2.1509807418       -1.7837759304
 H         -4.8743019653       -0.4768849631       -0.3679194721
 H         -4.7280885052        1.3025631771       -1.9154499921
 H         -3.4183092371        3.2011619430       -2.7877697162
 H         -1.2782004900        3.8157127426       -1.7571641032
 C         -0.0420964207        2.5747982938        0.4011963660
 H         -0.2793177158        2.8400377756        1.4423717451
 C          0.7261409113        3.7171367699       -0.2309056760
 C          0.3821122672        5.1350921039        0.1089759002
 C          1.6510798953        4.5273327939        0.6247223064
 H          2.5899796358        4.8548450974        0.2039980198
 H          1.7091354440        4.2708136657        1.6729865819
 H         -0.4216412169        5.2993848782        0.8107485296
 H          0.4527251097        5.8841303866       -0.6651318740
 H          1.0486491279        3.4946014325       -1.2413702881
 O          0.8943743323        1.0655785277       -1.8597429036
