  62
        -98.94084749
 C         -1.8223267296       -0.7152313300        0.5341441104
 C         -2.2971906696        0.0529335793       -0.5579359401
 C         -3.4358290495        0.9363880595       -0.2642088807
 C         -3.9067473295        1.0362012604        0.9910225892
 C         -5.0554282095        1.8957802308        1.4436431286
 C         -6.4318882895        1.2485206107        1.2372887291
 C         -6.9083093395        1.1801292497       -0.2143361709
 H         -7.9654831095        0.9082078898       -0.1911088507
 H         -6.8370366695        2.1702769894       -0.6656802315
 C         -6.1566388796        0.1614249391       -1.0826600602
 H         -5.6247773296       -0.5437575505       -0.4396888197
 H         -6.8744398196       -0.4186861613       -1.6668215797
 C         -5.1642703295        0.7781732084       -2.0686801306
 H         -4.6671128896       -0.0328092020       -2.6070887800
 H         -5.7031313595        1.3850674679       -2.7995951810
 C         -4.0816207195        1.6471472888       -1.4149156112
 H         -4.5070246895        2.5956734690       -1.0876274918
 H         -3.3059948195        1.8488598082       -2.1580319013
 H         -6.4119110096        0.2421233910        1.6621888298
 H         -7.1562335795        1.8347883312        1.8073969987
 H         -5.0219881894        2.8563245704        0.9287088880
 H         -4.9126855995        2.0690494415        2.5125764385
 O         -3.3564118895        0.3556518911        2.0321337897
 C         -2.3206394396       -0.5422602791        1.8277985903
 O         -1.9216728596       -1.1049142184        2.8676680107
 O         -1.8117215396        0.0131341185       -1.7166638401
 C         -0.6936802797       -1.7188830802        0.3732728411
 C          0.4358327804       -1.1088233908       -0.4204942493
 C          0.9505543803       -1.6610658616       -1.5851917989
 C          1.9941090704       -1.0425254021       -2.2524693394
 C          2.5487399404        0.1294064082       -1.7742290202
 C          2.0466070705        0.6859917390       -0.6041519506
 C          1.0082567704        0.0606153396        0.0672800899
 H          0.6147995405        0.4977449602        0.9775468696
 N          2.6112608905        1.8726350894       -0.1042410014
 S          4.2807119705        1.9755437093       -0.0470842715
 O          4.5669486106        2.9018595300        1.0261670979
 O          4.7906912105        2.3409545784       -1.3450210117
 C          4.8333377804        0.3332750296        0.3785519597
 C          4.4395589904       -0.1869242696        1.5956317600
 C          4.8243947804       -1.4746559693        1.9307389209
 C          5.5921441903       -2.2171984900        1.0463552814
 C          5.9835877603       -1.6790513608       -0.1694620289
 C          5.6002006504       -0.3916902511       -0.5104062398
 H          5.8812762104        0.0645747383       -1.4454263202
 H          6.5822501703       -2.2581717113       -0.8537907685
 H          5.8867659203       -3.2209201398        1.3089790121
 H          4.5208902903       -1.8940925087        2.8766234012
 H          3.8475478105        0.4187729309        2.2633201496
 H          2.1942731605        2.1957710100        0.7558959584
 H          3.3487959004        0.6321564678       -2.2929025505
 H          2.3763340403       -1.4765928627       -3.1636480091
 H          0.5182761603       -2.5618209418       -1.9878639183
 H         -0.3231095797       -1.8921811995        1.3972927112
 C         -1.1435092997       -3.0728327405       -0.1567493579
 C         -2.5439092997       -3.5613532503        0.0610461224
 C         -2.0796338997       -3.2089056713       -1.3184729578
 H         -1.9111889198       -4.0119616418       -2.0211570373
 H         -2.4474653197       -2.3026927716       -1.7722272685
 H         -2.6915027198       -4.6022404301        0.3071746131
 H         -3.2362925997       -2.8951716199        0.5557112419
 H         -0.3603088698       -3.8196998205       -0.0727408774
