  62
        -98.94334056
 C         -1.1211047715       -1.2860218351       -0.1272135952
 C         -1.8983152979       -0.7788439409        0.9474610399
 C         -2.7934874288        0.3389179607        0.6335893095
 C         -2.8026418306        0.8537547723       -0.6086807553
 C         -3.6467957632        2.0038761211       -1.0866725633
 C         -5.0695012510        1.6020258638       -1.5002991202
 C         -6.0078620692        1.2435672705       -0.3471056789
 H         -5.9953213342        2.0439203752        0.3933331844
 H         -7.0179300088        1.1985352268       -0.7593251824
 C         -5.6935365873       -0.0961829481        0.3334992210
 H         -6.6184433775       -0.6615247468        0.4684285964
 H         -5.0475484513       -0.6918734381       -0.3156892563
 C         -5.0345435478        0.0288887339        1.7073554848
 H         -4.8212070165       -0.9769980738        2.0776756458
 H         -5.7286442356        0.5036110835        2.4044017002
 C         -3.7216745187        0.8228537464        1.7064419032
 H         -3.9301342991        1.8854132364        1.5824878104
 H         -3.2278048147        0.6687702592        2.6686778839
 H         -5.5019978225        2.4464265788       -2.0420507094
 H         -5.0074163784        0.7603012573       -2.1940224462
 H         -3.6971315931        2.7724175164       -0.3149546386
 H         -3.1422369194        2.4187575055       -1.9617314895
 O         -2.0013013952        0.3807195766       -1.5964656485
 C         -1.1615037683       -0.7074861042       -1.3960935380
 O         -0.5218912380       -1.0303386221       -2.4158134186
 H          1.3963278914       -0.9473406207       -1.3010039297
 C          1.8599793823       -1.2434531489       -0.3715254599
 C          1.1596266114       -2.0587620689        0.5075301420
 C          1.7713565146       -2.4268949974        1.6994778274
 C          3.0507050743       -1.9903826379        2.0014009831
 C          3.7433511809       -1.1744266244        1.1242092174
 C          3.1373723100       -0.8007453848       -0.0677179355
 N          3.8149891810        0.0752156430       -0.9513697262
 S          3.9123038656        1.6472688468       -0.3758397002
 O          4.2785671947        2.4657707382       -1.5085695662
 O          4.8156946145        1.6672241355        0.7459614578
 C          2.2589956863        2.0408624572        0.1686353897
 C          1.8776796540        1.7093861634        1.4535547251
 C          0.5747855515        1.9611693533        1.8506319002
 C         -0.3174532623        2.5422124274        0.9635321508
 C          0.0792708403        2.8652090897       -0.3247146884
 C          1.3775273101        2.6045716132       -0.7314468861
 H          1.7244902860        2.8420858291       -1.7246650020
 H         -0.6197394606        3.3121897210       -1.0133507192
 H         -1.3287052265        2.7407518172        1.2802401070
 H          0.2555770970        1.6975287362        2.8461212833
 H          2.6025712992        1.2704207363        2.1193377841
 H          3.3882225822        0.0958405001       -1.8683454036
 H          4.7290444276       -0.8024456887        1.3519274874
 H          3.5116112413       -2.2838273254        2.9321618237
 H          1.2310180743       -3.0458975959        2.4004586782
 C         -0.2458273449       -2.4899260323        0.1802050586
 H         -0.6800703802       -2.9192970310        1.0966445744
 C         -0.3099607998       -3.5643918886       -0.8976060780
 C          0.8458192272       -3.9429885729       -1.7699968433
 C          0.3917906404       -4.8739565028       -0.6886155425
 H         -0.1158054863       -5.7856682646       -0.9647418680
 H          1.0201998014       -4.9640329370        0.1847205779
 H          0.6331697841       -4.1934732369       -2.7982607981
 H          1.7835317579       -3.4270010721       -1.6367861817
 H         -1.2897504122       -3.6094822995       -1.3628787523
 O         -1.8518865702       -1.2502687160        2.1136085375
