  62
        -98.92930903
 C         -2.2817187702       -0.3602915362        0.7251599580
 C         -3.3738558723       -0.7871841074       -0.0652549577
 C         -4.3565278497        0.2492864223       -0.4547136433
 C         -4.1410126163        1.5262891583       -0.0915892029
 C         -5.0109021008        2.7287934443       -0.3441537046
 C         -6.2408355946        2.7733935759        0.5775924289
 C         -6.9626232700        1.4397085919        0.7524621664
 H         -6.2594898943        0.7002677933        1.1401281629
 H         -7.7377207375        1.5788259021        1.5107576043
 C         -7.6329458020        0.8925071334       -0.5053867749
 H         -8.1734560590       -0.0128053811       -0.2173988569
 H         -8.3673454404        1.6173143860       -0.8638605699
 C         -6.6965406273        0.5382972376       -1.6623358478
 H         -6.3694184988        1.4305596207       -2.1892998757
 H         -7.2752586637       -0.0504711764       -2.3802052725
 C         -5.4937198768       -0.3151722273       -1.2724490154
 H         -5.0320333791       -0.7038667388       -2.1882762943
 H         -5.8440655771       -1.2008094425       -0.7302187475
 H         -6.9365019274        3.5187155350        0.1885328644
 H         -5.9094580921        3.1037712140        1.5651074136
 H         -4.3944714736        3.6081731920       -0.1446397820
 H         -5.3062675545        2.7630873278       -1.3886017887
 O         -3.0487170198        1.8988071761        0.6370757071
 C         -2.1078146999        0.9845291330        1.0595070489
 O         -1.1725011559        1.4761383026        1.7250994579
 O         -3.5536316563       -1.9749286988       -0.4375945259
 C         -1.1949713663       -1.2973468101        1.2277685296
 C         -0.0947996852       -1.3822147232        0.2013285142
 C         -0.3575129997       -1.7947903686       -1.1017103843
 C          0.6571241690       -1.8324562408       -2.0400364215
 C          1.9473042141       -1.4583432828       -1.7048635938
 C          2.2161920384       -1.0297442200       -0.4122957269
 C          1.1959451752       -0.9985079378        0.5310921812
 H          1.4034309581       -0.6478001133        1.5333323833
 N          3.5266336955       -0.6535442458       -0.0523561987
 S          4.3327062179        0.4185957776       -1.0829257448
 O          3.5200001175        1.5921254509       -1.3182746652
 O          4.7516343188       -0.3043430387       -2.2570253711
 C          5.7525352752        0.8263776950       -0.0872015993
 C          5.7216028734        1.9594563110        0.7032548016
 C          6.8201362100        2.2532812002        1.4958712364
 C          7.9225214305        1.4118395857        1.4868091484
 C          7.9381824883        0.2779955211        0.6880626881
 C          6.8439172402       -0.0210710189       -0.1077428162
 H          6.8139437061       -0.8851195926       -0.7504828442
 H          8.7981820409       -0.3720078661        0.6826469578
 H          8.7756631379        1.6435022538        2.1046790430
 H          6.8112245478        3.1354111940        2.1157613215
 H          4.8469044179        2.5899392484        0.6727701195
 H          3.5572125438       -0.2942717957        0.8933503249
 H          2.7409576457       -1.4731665549       -2.4337738452
 H          0.4424452936       -2.1543948865       -3.0482921769
 H         -1.3650267860       -2.0773076077       -1.3678641222
 H         -0.7786059552       -0.7963686674        2.1161652704
 C         -1.7227791710       -2.6520980420        1.6790157835
 C         -1.3612173136       -3.9486908128        1.0251082505
 C         -0.7982345959       -3.6107327950        2.3704207293
 H         -1.1570839550       -4.1455435246        3.2366515244
 H          0.2462613965       -3.3403868500        2.4179568271
 H         -2.1311359667       -4.7018729131        0.9560351612
 H         -0.6960116524       -3.9286871977        0.1765491574
 H         -2.7306207761       -2.5824249315        2.0740146321
