  62
        -98.93848408
 C         -2.5391012503       -1.2296922450        0.1944692136
 C         -2.5237632566       -0.2719769079       -0.8459003467
 C         -3.1950497529        1.0129460284       -0.5722540746
 C         -3.7893270720        1.2179795288        0.6172506799
 C         -4.5649761596        2.4015943226        1.1565094338
 C         -4.4835316741        3.7656550144        0.4759728048
 C         -3.1134080012        4.4396193208        0.5505046971
 H         -3.1454552861        5.3475274246       -0.0556757637
 H         -2.9274483511        4.7368690701        1.5855425012
 C         -1.9294471503        3.5863562500        0.1011033491
 H         -1.0196074794        4.1835677309        0.2092460322
 H         -1.8177714205        2.7257131573        0.7645132410
 C         -1.9834190322        3.0915998816       -1.3429839903
 H         -2.1079952850        3.9401292144       -2.0191133887
 H         -1.0148243348        2.6300543209       -1.5607736779
 C         -3.0782407259        2.0541598361       -1.6476255527
 H         -4.0371656233        2.5328738809       -1.8292873288
 H         -2.7957483397        1.5253649889       -2.5625947311
 H         -5.1963702325        4.4133248201        0.9934340278
 H         -4.8157877044        3.6933214841       -0.5553679935
 H         -5.6143142735        2.0871908418        1.1749887280
 H         -4.2555053555        2.5049546589        2.2012621376
 O         -3.8107256670        0.2500905996        1.5791728809
 C         -3.1747500371       -0.9638185289        1.4104289104
 O         -3.2523325114       -1.7206533365        2.3984037641
 H         -0.0371349491       -1.3795022008       -1.5442045016
 C          0.4194890103       -1.6855525290       -0.6149319513
 C         -0.3481314688       -2.3359442166        0.3409603465
 C          0.2515556510       -2.6875009788        1.5449898964
 C          1.5814007487       -2.3882104139        1.7848001914
 C          2.3352071356       -1.7176279576        0.8375038243
 C          1.7416922920       -1.3565935807       -0.3641843933
 N          2.4872427857       -0.6182335746       -1.3131129059
 S          2.8391490548        0.9550289965       -0.8151835121
 O          1.8546797082        1.4454611969        0.1226910261
 O          3.0122565030        1.7213532153       -2.0304495054
 C          4.4165966563        0.7828363757       -0.0076415485
 C          4.5328687696        1.0534152046        1.3414432063
 C          5.7701113206        0.9068985530        1.9495423229
 C          6.8623479345        0.4944165443        1.2016152153
 C          6.7289049064        0.2278823050       -0.1531257017
 C          5.4952799227        0.3734108724       -0.7671114010
 H          5.3472342792        0.1834965050       -1.8170156634
 H          7.5806616524       -0.0922973084       -0.7311933165
 H          7.8233777041        0.3805308552        1.6777990995
 H          5.8754471192        1.1136846610        3.0024674369
 H          3.6539285498        1.3666147005        1.8821890851
 H          2.0199117454       -0.5725046079       -2.2093085437
 H          3.3665489525       -1.4650423264        1.0240604960
 H          2.0323566867       -2.6694427456        2.7242728231
 H         -0.3425407784       -3.1759955308        2.3040798117
 C         -1.8220035662       -2.5709341842        0.1111496846
 H         -2.2046155183       -3.1640532742        0.9521548975
 C         -2.0968114350       -3.3259103894       -1.1732630047
 C         -1.8206539839       -4.7977588188       -1.2191217537
 C         -3.2340200955       -4.2997276647       -1.2189075471
 H         -3.8101671895       -4.3749358527       -2.1288821360
 H         -3.8202348080       -4.4257870839       -0.3201646482
 H         -1.4238732494       -5.2187384487       -2.1300788082
 H         -1.4480327858       -5.2636562577       -0.3194318027
 H         -1.9064802097       -2.7477597151       -2.0673969298
 O         -1.9865042748       -0.4541910392       -1.9724752660
