  62
        -98.94415774
 C          2.6222266291        1.3181406798        0.1269292602
 C          2.6332900193        0.2789765701       -0.8344180701
 C          3.7793225894       -0.6407046198       -0.7686428202
 C          4.7325282593       -0.4451470399        0.1605220100
 C          5.9287600594       -1.3281332898        0.3643654999
 C          5.6369331094       -2.4323274901        1.3898421496
 C          4.3343848595       -3.1885252002        1.1280131793
 H          4.2479262496       -3.9632188603        1.8929422191
 H          3.4907975494       -2.5076609803        1.2647447294
 C          4.2430280097       -3.8318801599       -0.2627262908
 H          5.2384066198       -3.9093265897       -0.7017029308
 H          3.8563408198       -4.8473768999       -0.1541674611
 C          3.3149559197       -3.1057777598       -1.2386985407
 H          2.3409916697       -2.9431525400       -0.7687349408
 H          3.1538519299       -3.7568971696       -2.1023210609
 C          3.8252119596       -1.7602275096       -1.7701827804
 H          4.8347303497       -1.8812394594       -2.1686039604
 H          3.1661443396       -1.4567948095       -2.5890711704
 H          6.4731452195       -3.1337887900        1.3893016695
 H          5.5749460793       -1.9772264003        2.3809332197
 H          6.2148033295       -1.7688568096       -0.5885690102
 H          6.7512550293       -0.7120264398        0.7314717801
 O          4.6897363691        0.5680811299        1.0624632602
 C          3.6321681190        1.4607083098        1.0804263603
 O          3.7050734588        2.3262731196        1.9753627005
 O          1.7423687194        0.1254855401       -1.7117087502
 C          1.4837714290        2.3246286097        0.1695068203
 C          0.2044253590        1.5953562795        0.4993181800
 C          0.0330563590        1.0988667792        1.7894525399
 C         -1.1051777310        0.3934398390        2.1277026397
 C         -2.0958707609        0.1627954591        1.1876726995
 C         -1.9256211008        0.6361389394       -0.1053642004
 C         -0.7857160809        1.3594212196       -0.4389199601
 H         -0.6650910808        1.7153294998       -1.4494892300
 N         -2.9208332207        0.4212472395       -1.0690744305
 S         -3.7812847105       -1.0138736206       -1.1020985309
 O         -2.9944176604       -2.1344997006       -0.6422443810
 O         -4.3009548504       -1.1034420004       -2.4492346409
 C         -5.1330228707       -0.7106222710        0.0186496591
 C         -5.4335651206       -1.6319483213        1.0025023989
 C         -6.4968992607       -1.3800507616        1.8556475788
 C         -7.2380597809       -0.2176369216        1.7098984090
 C         -6.9255890609        0.6963841586        0.7146356692
 C         -5.8647461908        0.4497976789       -0.1418742207
 H         -5.5917530708        1.1340529191       -0.9276729106
 H         -7.5040166410        1.5994911086        0.6043492594
 H         -8.0638885709       -0.0229050619        2.3758041190
 H         -6.7412669907       -2.0899880018        2.6295004987
 H         -4.8261755105       -2.5196567312        1.0831785787
 H         -2.6667446407        0.7238203597       -1.9978426104
 H         -2.9805797508       -0.3963825511        1.4436987393
 H         -1.2259402410        0.0174257588        3.1324398796
 H          0.8126282089        1.2697061391        2.5197088700
 H          1.7123284488        3.0012877296        1.0041347104
 C          1.4236606490        3.1336698800       -1.1089578795
 C          0.6616160488        4.4236643599       -1.1311463193
 C          2.1592292388        4.4364106101       -1.1814997392
 H          2.6431227689        4.7031456903       -2.1091746991
 H          2.7001408887        4.7524438299       -0.3014406691
 H          0.1162499689        4.6867953200       -2.0247268893
 H          0.1826350587        4.7334747196       -0.2148097393
 H          1.4165218191        2.5199966502       -2.0018683797
