  62
        -98.93984225
 C          1.8277596211        1.0215971004        0.4682763273
 C          2.3799032573       -0.0791857387        1.1733496073
 C          3.8339615513       -0.2477630732        1.0848405787
 C          4.5638618726        0.6363901768        0.3814678081
 C          6.0590938370        0.6194053448        0.2145555190
 C          6.5512139082       -0.3076637719       -0.9051835556
 C          6.4547971615       -1.8031849251       -0.6008267993
 H          7.0306702505       -2.3242220445       -1.3682246282
 H          6.9302602441       -2.0092508058        0.3586351894
 C          5.0234653782       -2.3583439511       -0.5975753895
 H          4.3574655970       -1.6558483046       -1.1041524234
 H          4.9930432028       -3.2918408442       -1.1641490142
 C          4.4609350360       -2.6552975633        0.7926997440
 H          3.4314205778       -3.0051894031        0.6783831142
 H          5.0385313844       -3.4567602851        1.2589343521
 C          4.4474531290       -1.4481746778        1.7395964842
 H          5.4591648774       -1.2229437617        2.0768106684
 H          3.8357556249       -1.7014437890        2.6091602764
 H          5.9900464549       -0.0845604989       -1.8154471230
 H          7.5995356492       -0.0640789350       -1.0924686362
 H          6.5295103647        0.3358344421        1.1564687382
 H          6.3561240912        1.6416366421       -0.0293139600
 O          4.0034293420        1.6921599480       -0.2614035350
 C          2.6280227009        1.9021113203       -0.2617518955
 O          2.2790733784        2.8914005529       -0.9302774638
 O          1.6861299274       -0.8789235559        1.8581465612
 C          0.3202852998        1.1917253538        0.5466198284
 C         -0.3494488462        0.4851468282       -0.6042059310
 C         -0.0047421123        0.7766447367       -1.9216177845
 C         -0.6140432647        0.1102780946       -2.9680426229
 C         -1.5806422742       -0.8501312379       -2.7247838117
 C         -1.9271007784       -1.1536700738       -1.4133519676
 C         -1.3132108072       -0.4830770208       -0.3623742317
 H         -1.5691344695       -0.7505426470        0.6518851031
 N         -2.8904232167       -2.1324281301       -1.1456572100
 S         -3.8581394588       -2.0679657207        0.2072124934
 O         -3.1236382355       -2.4721329377        1.3793354483
 O         -4.9989192379       -2.8907305050       -0.1352920953
 C         -4.3770575770       -0.3680105149        0.3715501547
 C         -4.8130210149        0.3167330848       -0.7457737707
 C         -5.2449499259        1.6255775193       -0.6037608504
 C         -5.2448787607        2.2227397312        0.6473417132
 C         -4.8105130948        1.5204810920        1.7607482884
 C         -4.3688917244        0.2136622943        1.6230482008
 H         -4.0091544009       -0.3635589180        2.4601321597
 H         -4.8070312392        1.9857313507        2.7333914261
 H         -5.5803195603        3.2417375145        0.7555478665
 H         -5.5789827018        2.1756448954       -1.4685028403
 H         -4.8116830079       -0.1718529802       -1.7062313624
 H         -3.3642852919       -2.5146587527       -1.9497324037
 H         -2.0541650241       -1.3718459029       -3.5423772145
 H         -0.3371014754        0.3436761004       -3.9850243072
 H          0.7459300423        1.5288450394       -2.1106959018
 H          0.0296502524        0.6618064720        1.4679294211
 C         -0.1146828498        2.6435471119        0.6969494005
 C         -0.9510995063        3.3692438525       -0.3105800965
 C         -1.5504347703        2.9568927021        0.9976578836
 H         -1.7725500877        3.7157596096        1.7320895822
 H         -2.2455098494        2.1304895003        0.9895313498
 H         -0.7314319490        4.4124219134       -0.4780645286
 H         -1.2572907096        2.8409159909       -1.1991033843
 H          0.6312722351        3.2377864357        1.2141711698
