  62
        -98.94431964
 C         -2.6341041821       -1.1052468206        0.1914977734
 C         -2.7131415842       -0.3047502251       -0.9740964994
 C         -3.5402913338        0.9030698943       -0.8590128540
 C         -4.1812447402        1.1697375889        0.2935522222
 C         -5.0819433619        2.3469082795        0.5536517009
 C         -4.3373521248        3.6234611317        0.9684398043
 C         -3.5574161949        4.3140714716       -0.1511682031
 H         -4.2152579911        4.4721358755       -1.0061590034
 H         -3.2650939045        5.2977061122        0.2217393694
 C         -2.2969133403        3.5617686191       -0.6011836658
 H         -2.0242814910        2.8236408387        0.1571527803
 H         -1.4621798625        4.2620501547       -0.6786832156
 C         -2.4264679111        2.8577830457       -1.9521874635
 H         -1.4927323021        2.3256935605       -2.1522497744
 H         -2.5674820723        3.6011390211       -2.7397073561
 C         -3.5744217266        1.8422661417       -2.0265177424
 H         -4.5327693645        2.3585247719       -2.0749916938
 H         -3.4478012815        1.2479121543       -2.9344432349
 H         -5.0819610071        4.3255308071        1.3505880871
 H         -3.6586140594        3.3808320400        1.7897801207
 H         -5.6861205722        2.5480148735       -0.3312805896
 H         -5.7462260998        2.0555307224        1.3701248486
 O         -4.0923876428        0.3634445783        1.3860577108
 C         -3.2972422657       -0.7723427803        1.3712235567
 O         -3.2631691405       -1.3906742497        2.4559244722
 O         -2.1251779370       -0.5805606576       -2.0508826736
 C         -1.7824238738       -2.3604335626        0.1837517865
 C         -0.3558438336       -2.0309128623       -0.1872816676
 C          0.4109624644       -2.8269850193       -1.0281017773
 C          1.7214694534       -2.4859168741       -1.3152640615
 C          2.2955254030       -1.3507488200       -0.7742343425
 C          1.5428373030       -0.5540800411        0.0787491236
 C          0.2337298007       -0.9032892857        0.3710315643
 H         -0.3490495333       -0.2818208451        1.0416318759
 N          2.1173502596        0.6074803890        0.6284154215
 S          3.5637656883        0.4340785639        1.4672015699
 O          3.6728518294       -0.8775557643        2.0635255585
 O          3.6113971377        1.5589099374        2.3759845929
 C          4.8142935189        0.6432345596        0.2177228578
 C          5.7713270572       -0.3351079363        0.0322630192
 C          6.7425254659       -0.1463002410       -0.9388195891
 C          6.7392101390        1.0109670400       -1.7023569210
 C          5.7719844110        1.9848017071       -1.5019373073
 C          4.7992630059        1.8032041668       -0.5318895042
 H          4.0324731362        2.5358443697       -0.3426194247
 H          5.7723837096        2.8832315844       -2.0978720234
 H          7.4949211185        1.1552515339       -2.4582496867
 H          7.4953110605       -0.9019209847       -1.0959573287
 H          5.7295952471       -1.2210968491        0.6454275764
 H          1.4680788534        1.1597410366        1.1698245154
 H          3.3122330351       -1.0764097173       -1.0034722188
 H          2.3026134820       -3.1115197883       -1.9753025005
 H         -0.0191725749       -3.7145537197       -1.4620736492
 H         -1.7836281982       -2.7378683450        1.2176913596
 C         -2.4109458796       -3.4053165380       -0.7160536510
 C         -2.2581539443       -4.8636778173       -0.4079630323
 C         -3.5798902983       -4.1886652448       -0.2018019060
 H         -4.3887154989       -4.4148441824       -0.8801728698
 H         -3.9025263671       -3.9879041762        0.8098888565
 H         -2.1629476333       -5.5574925671       -1.2296177505
 H         -1.6866927339       -5.1335797981        0.4674533716
 H         -2.4321142755       -3.0978453884       -1.7552295023
