  62
        -98.93903139
 C          1.9860668133        0.9505414903       -0.4014712457
 C          3.0479341984        1.1726374234        0.5098162630
 C          4.3307387462        0.5122122572        0.2151961742
 C          4.4306517021       -0.2770637047       -0.8705850683
 C          5.6037121539       -1.0467649462       -1.4408065716
 C          6.8663938606       -1.2727178868       -0.6135590352
 C          6.6844731836       -2.1950894996        0.5915229084
 H          6.5116893285       -3.2112614545        0.2278761061
 H          7.6160620781       -2.2003547858        1.1616112440
 C          5.5313829088       -1.8395766450        1.5268733463
 H          5.5128492192       -2.5806465552        2.3306879954
 H          4.5836459942       -1.9254719439        0.9910028904
 C          5.6141984304       -0.4574995385        2.1716984632
 H          6.5721809007       -0.3476524376        2.6836162691
 H          4.8235943610       -0.3986755655        2.9245664601
 C          5.4301062623        0.7323463221        1.2141214865
 H          5.1337881084        1.6008322850        1.8094460136
 H          6.3610891665        0.9834126588        0.7116547989
 H          7.5949009179       -1.7421026362       -1.2803362801
 H          7.2901464978       -0.3214428701       -0.3055587798
 H          5.2006404885       -2.0163400556       -1.7506813322
 H          5.8826610755       -0.5221233906       -2.3614132434
 O          3.3773042155       -0.4673469766       -1.7168570954
 C          2.1399305386        0.1213683990       -1.5106073761
 O          1.2958096895       -0.1702540203       -2.3800379975
 O          2.9331216687        1.9055853926        1.5277672954
 C          0.6503015108        1.6123140217       -0.1055560308
 C         -0.3171704597        0.5617055772        0.3807768557
 C         -0.3922713482        0.2661583472        1.7384282453
 C         -1.2565677607       -0.7084351442        2.2032172305
 C         -2.0632796648       -1.4086246044        1.3237294217
 C         -1.9883754868       -1.1259194868       -0.0338413049
 C         -1.1290383827       -0.1398290457       -0.4980466166
 H         -1.0656894969        0.0572031574       -1.5566110273
 N         -2.8161159258       -1.8277944953       -0.9299459737
 S         -4.4504689322       -1.8449421706       -0.5657506220
 O         -4.7200291232       -2.8852749469        0.3956751659
 O         -5.1312953797       -1.9697271420       -1.8355805594
 C         -4.7649930852       -0.2489912653        0.1691621739
 C         -4.5330380815        0.8764640044       -0.5968243110
 C         -4.7172842106        2.1249282533       -0.0263304690
 C         -5.1264592345        2.2266552808        1.2945823991
 C         -5.3596642763        1.0875620903        2.0488440428
 C         -5.1745250542       -0.1642404504        1.4839299731
 H         -5.3386758483       -1.0755208492        2.0353741527
 H         -5.6790933536        1.1699198909        3.0751742159
 H         -5.2639641440        3.2006177398        1.7370258814
 H         -4.5354437586        3.0125635457       -0.6107151449
 H         -4.2191323612        0.7638353687       -1.6221414064
 H         -2.6581071767       -1.5838775730       -1.8968283868
 H         -2.7432259490       -2.1730175002        1.6640171677
 H         -1.3045787658       -0.9251110735        3.2594166502
 H          0.2449369971        0.8049140307        2.4252358463
 H          0.8491145094        2.2979505677        0.7287276181
 C          0.1173642386        2.4111248918       -1.2778839173
 C         -1.0672294465        3.3052834151       -1.0673702179
 C          0.2897615834        3.8989909378       -1.2940700475
 H          0.4914078926        4.3829789548       -2.2380583730
 H          0.7960899456        4.3530563503       -0.4550695947
 H         -1.7988305081        3.3829906591       -1.8569306840
 H         -1.4835011280        3.3507286343       -0.0724828409
 H          0.1988161129        1.8948888794       -2.2261931094
