  62
        -98.93610497
 C          1.6479492072        0.3959027039       -0.3675330732
 C          2.8779924401        0.8580547507       -0.8908227938
 C          4.0740239004        0.5427889479       -0.0983759736
 C          3.9446662512       -0.1255957145        1.0619887122
 C          5.0485829163       -0.4806194198        2.0230705968
 C          6.1087463558       -1.4730806387        1.5078076308
 C          7.3543058164       -0.8115622392        0.9051486323
 H          7.4581200196        0.1898404884        1.3247854794
 H          8.2365222934       -1.3744529173        1.2168796791
 C          7.3936880325       -0.7313290724       -0.6239616708
 H          8.1850329723       -0.0316830245       -0.9017342997
 H          7.6653503428       -1.7102149673       -1.0256470260
 C          6.0931243250       -0.3030194131       -1.3039495428
 H          5.3825754139       -1.1328760147       -1.2939791673
 H          6.3097648452       -0.0957016462       -2.3538579070
 C          5.4088976020        0.9235581850       -0.6697265812
 H          5.2165100177        1.6791647978       -1.4342177817
 H          6.0437499088        1.3649524463        0.0971774123
 H          5.6520170310       -2.1524454823        0.7887177697
 H          6.4228419509       -2.0721729883        2.3639783670
 H          5.5410553385        0.4394214347        2.3461192736
 H          4.5480676072       -0.9131185708        2.8917165283
 O          2.7379369120       -0.5370879714        1.5385971530
 C          1.5642409865       -0.2993601037        0.8388377787
 O          0.5399101051       -0.7453113582        1.3876045056
 O          2.9717082399        1.5142877486       -1.9633953448
 C          0.3689703244        0.6767843334       -1.1353463965
 C         -0.5724048769        1.4873147100       -0.2800725978
 C         -0.1063471657        2.6669367963        0.2963031263
 C         -0.9272566552        3.4303015764        1.1022346983
 C         -2.2314594801        3.0371530925        1.3482958699
 C         -2.7084902151        1.8649391590        0.7749309774
 C         -1.8807498432        1.1021893897       -0.0389330721
 H         -2.2698501205        0.2021414686       -0.4818682547
 N         -4.0092559073        1.4251172306        1.0402523382
 S         -4.8720507472        0.4786331255       -0.0244777389
 O         -4.6908044647        0.9056216951       -1.3924150951
 O         -6.2295975222        0.5303473805        0.4754234225
 C         -4.2290446052       -1.1662323483        0.1979026822
 C         -4.0556804482       -1.9728194174       -0.9092177438
 C         -3.5705447064       -3.2587550740       -0.7339475994
 C         -3.2728755933       -3.7147158976        0.5408651882
 C         -3.4599394920       -2.8949482679        1.6430872230
 C         -3.9444660492       -1.6080769839        1.4741159272
 H         -4.0933615638       -0.9438278066        2.3089096384
 H         -3.2227910594       -3.2519818308        2.6323111837
 H         -2.8900101077       -4.7140916977        0.6758963461
 H         -3.4232194233       -3.8982261041       -1.5898802946
 H         -4.2930807973       -1.5725753546       -1.8824671039
 H         -4.5884396513        2.0498521247        1.5796751757
 H         -2.8725287992        3.6293725134        1.9833135008
 H         -0.5513446833        4.3411477062        1.5437240085
 H          0.9134677882        2.9729635407        0.1060208616
 H          0.6720384943        1.2969577907       -1.9921422961
 C         -0.2303181543       -0.6127163771       -1.6551137295
 C         -1.0921239270       -0.6013880830       -2.8807651543
 C          0.2865308249       -1.1852106279       -2.9396713258
 H          0.3899810909       -2.2566089753       -3.0218470780
 H          1.0570476897       -0.6310036397       -3.4556154565
 H         -1.9362004974       -1.2724679023       -2.9225746490
 H         -1.2667379970        0.3497731249       -3.3607145229
 H         -0.4781314384       -1.3087133219       -0.8610373808
