  62
        -98.94492057
 C         -1.9613894525       -0.8517451224        0.0706469518
 C         -2.2552480981        0.1140427760        1.0604472660
 C         -2.3475682190        1.5035154300        0.5963339259
 C         -2.1183639696        1.7786317295       -0.7009254812
 C         -2.2113051870        3.1450655016       -1.3155035186
 C         -3.6233779313        3.4227234650       -1.8502198795
 C         -4.7344347694        3.1101859822       -0.8478866061
 H         -5.6830331998        3.3704851664       -1.3221096570
 H         -4.7513714124        2.0341146365       -0.6610120206
 C         -4.6096655337        3.8536882279        0.4891914379
 H         -5.5899048765        4.2488831755        0.7634555634
 H         -3.9356861802        4.7038056118        0.3787802782
 C         -4.1384459005        2.9839139238        1.6560972492
 H         -4.2913406982        3.5441881075        2.5822621512
 H         -4.7533548779        2.0823249779        1.7129579013
 C         -2.6649870461        2.5579923658        1.6193440578
 H         -2.0286028981        3.4343076139        1.4768395203
 H         -2.4201102157        2.1144643595        2.5892374864
 H         -3.7816567878        2.8094987131       -2.7402198907
 H         -3.6799828448        4.4721415520       -2.1447971410
 H         -1.9384433378        3.8897225791       -0.5699658809
 H         -1.4986673258        3.1951051876       -2.1406911819
 O         -1.8233426859        0.8261715270       -1.6216820083
 C         -1.7238508015       -0.5075411507       -1.2602588720
 O         -1.4399551915       -1.2762165281       -2.1994535259
 H          0.4500370815       -0.9362343134        0.8916316569
 C          0.6545423763       -1.8925587820        0.4308830681
 C         -0.3946173955       -2.7585473750        0.1489277769
 C         -0.1023113331       -3.9885977649       -0.4256315680
 C          1.2044618059       -4.3196132699       -0.7412158341
 C          2.2386387777       -3.4333475968       -0.5051765014
 C          1.9582720782       -2.2079635485        0.0900464212
 N          2.9836311890       -1.2859739571        0.3691341221
 S          2.6219107378        0.3597930910        0.2389570714
 O          2.0092709005        0.7979908542        1.4692541010
 O          1.8870223394        0.6253509434       -0.9773686262
 C          4.2706268670        1.0320488114        0.1278437973
 C          4.7824318580        1.3806920289       -1.1075170737
 C          6.0770500171        1.8707686971       -1.1828480124
 C          6.8346127832        1.9992108365       -0.0284519771
 C          6.3069871297        1.6455229778        1.2047379127
 C          5.0129383500        1.1566736831        1.2872906517
 H          4.5556619488        0.8778144172        2.2222088531
 H          6.8978064204        1.7492763482        2.1004083699
 H          7.8416259032        2.3803232097       -0.0901214521
 H          6.4879732688        2.1496394692       -2.1397234724
 H          4.1525151660        1.2691202030       -1.9757244149
 H          3.8471422781       -1.5096299120       -0.1076189048
 H          3.2528482445       -3.6831312943       -0.7772661603
 H          1.4173996426       -5.2752951793       -1.1957537025
 H         -0.8988429416       -4.6820301912       -0.6404497507
 C         -1.7949508376       -2.3034315724        0.4811578861
 H         -1.9123024509       -2.3147605719        1.5757177266
 C         -2.8755792051       -3.1658617075       -0.1366099716
 C         -3.3599608791       -4.3959899830        0.5696310643
 C         -4.2350867049       -3.1823339460        0.4934488946
 H         -5.1013305742       -3.2070447033       -0.1504375955
 H         -4.3717700755       -2.5907475310        1.3870730801
 H         -3.6298401040       -5.2574027827       -0.0223874057
 H         -2.9097642792       -4.6353158943        1.5211134935
 H         -2.8245471596       -3.1788720800       -1.2196808388
 O         -2.4297365723       -0.1741763595        2.2771356632
