  62
        -98.93784137
 C          1.7906207878        1.1305627964        0.3074257338
 C          2.1610927559        0.0729291666       -0.5528696683
 C          3.6034312361       -0.0750053230       -0.8399940802
 C          4.4682477786        0.7959356782       -0.2871150726
 C          5.9694055629        0.8161069004       -0.4001153627
 C          6.6420486231       -0.2584463780        0.4700983118
 C          5.9756021499       -1.6312402448        0.4279632878
 H          6.4706938512       -2.2638586306        1.1695218204
 H          4.9314784241       -1.5337796645        0.7314397860
 C          6.0466326093       -2.3481768544       -0.9181490697
 H          7.0940801229       -2.4860971026       -1.1958509041
 H          5.6058285522       -3.3391505568       -0.7819455185
 C          5.3234889391       -1.6633735393       -2.0795399536
 H          5.2574770884       -2.3896702066       -2.8950690931
 H          5.9002248633       -0.8246620009       -2.4600090229
 C          3.8942991809       -1.2255409961       -1.7732082432
 H          3.3981645384       -0.9711325536       -2.7180665375
 H          3.3331567244       -2.0805796760       -1.3783026355
 H          7.6852687410       -0.3482669565        0.1629137338
 H          6.6237577828        0.0873995923        1.5064444877
 H          6.2664697135        0.7163317475       -1.4397665864
 H          6.2967692768        1.7986198752       -0.0531753729
 O          4.0608608431        1.8063694626        0.5337581866
 C          2.7322830902        2.0009817690        0.8539180680
 O          2.5177504319        2.9602541943        1.6226118169
 H         -2.0581706621        0.1020190317        0.0597229390
 C         -1.5002938887       -0.3956954359        0.8348008371
 C         -0.2699858530        0.0985443140        1.2397599799
 C          0.4205080972       -0.5730127580        2.2457656517
 C         -0.0937507146       -1.7244853371        2.8080917379
 C         -1.3104741897       -2.2287644928        2.3836047071
 C         -2.0169094988       -1.5578314952        1.3928970465
 N         -3.2763983253       -2.0181738886        0.9910982920
 S         -3.8888752382       -1.7584689533       -0.5393747023
 O         -4.9993938311       -2.6841106852       -0.6314232128
 O         -2.8852371496       -1.8776093783       -1.5698452842
 C         -4.5341402221       -0.0991465727       -0.4907555380
 C         -5.1241671143        0.3649642227        0.6681906594
 C         -5.6641325694        1.6411535832        0.6790325581
 C         -5.6155568590        2.4244478541       -0.4639496533
 C         -5.0249568460        1.9418364433       -1.6215873854
 C         -4.4776385452        0.6681581775       -1.6372674121
 H         -3.9964063277        0.2583704234       -2.5114441846
 H         -4.9877009306        2.5513297926       -2.5107656465
 H         -6.0375293888        3.4169354707       -0.4534397440
 H         -6.1219982637        2.0207685090        1.5781742997
 H         -5.1455370869       -0.2690920846        1.5385384395
 H         -3.5536117671       -2.9120099636        1.3680052581
 H         -1.7099918471       -3.1337706132        2.8152273451
 H          0.4586595374       -2.2390172090        3.5801145497
 H          1.3749032450       -0.1824799140        2.5730013538
 C          0.3306282195        1.3537736156        0.6562527734
 H          0.3237235984        2.1294961519        1.4365739249
 C         -0.4201625241        1.8765463297       -0.5509885064
 C         -1.5901795822        2.7949361157       -0.3686877957
 C         -0.2957893017        3.3271886904       -0.9040934487
 H         -0.2397423402        3.6007480130       -1.9469839935
 H          0.3154150102        3.9408456792       -0.2581883484
 H         -1.8658269607        3.0564461383        0.6415973618
 H         -2.4275309085        2.7038532228       -1.0438099710
 H         -0.4485798620        1.1612117093       -1.3660788007
 O          1.3309777099       -0.7272733276       -1.0604086340
