  62
        -98.94056040
 C         -1.8022720092       -0.8840052420       -0.3197020062
 C         -3.1386538570       -1.3530399011       -0.3940546150
 C         -4.1179855768       -0.6480513910        0.4403426138
 C         -3.7078124056        0.3335756980        1.2633013717
 C         -4.5804771549        1.1337737257        2.1915281378
 C         -5.2788068823        2.3235951541        1.5186722954
 C         -6.4230112668        1.9574113683        0.5723545538
 H         -7.1217019154        1.2970805598        1.0870296842
 H         -6.9573848405        2.8816997350        0.3437330525
 C         -5.9739333357        1.3089781964       -0.7447271130
 H         -4.9090105724        1.4984325919       -0.8987908380
 H         -6.5044645365        1.7734700555       -1.5789681680
 C         -6.2270378685       -0.1964454963       -0.8294709082
 H         -5.8386726492       -0.5564979670       -1.7858590373
 H         -7.3019824123       -0.3888576773       -0.8098045915
 C         -5.5638012195       -1.0117713811        0.2885042054
 H         -6.0954803784       -0.8645917040        1.2284283468
 H         -5.6145686127       -2.0696581489        0.0189992820
 H         -4.5309391549        2.9073292399        0.9770002721
 H         -5.6819229465        2.9559988529        2.3130431069
 H         -3.9277916029        1.5173700287        2.9788361682
 H         -5.3267271576        0.4819183653        2.6467975641
 O         -2.4051694030        0.7051428555        1.3613652060
 C         -1.4225005437        0.1257602611        0.5656246262
 O         -0.2854520199        0.5916359682        0.7569063764
 O         -3.4935883302       -2.3189127139       -1.1207039571
 C         -0.7708630109       -1.5636771030       -1.2017639446
 C          0.4741293255       -1.8805857600       -0.4117528677
 C          0.3474213100       -2.6146021245        0.7654224515
 C          1.4503236869       -2.9074167010        1.5429487730
 C          2.7129773043       -2.4920418401        1.1555346488
 C          2.8532120056       -1.7721758331       -0.0215050198
 C          1.7404929632       -1.4720157162       -0.7992971955
 H          1.8711409121       -0.8920215594       -1.6996214040
 N          4.1430969005       -1.3658764155       -0.4260572416
 S          4.9454380555       -0.2135675838        0.4864863596
 O          6.2966542127       -0.1784030216       -0.0267553650
 O          4.7991295891       -0.5369865445        1.8819693006
 C          4.1381743055        1.3333076831        0.1094499620
 C          2.8373410730        1.5276277252        0.5278168835
 C          2.1971830717        2.7096937612        0.1906475170
 C          2.8633819327        3.6736784878       -0.5494559874
 C          4.1720336705        3.4642284791       -0.9591457978
 C          4.8154336385        2.2815410236       -0.6332557337
 H          5.8294626296        2.0733252551       -0.9343597309
 H          4.6889078320        4.2159624860       -1.5338793302
 H          2.3589002552        4.5914198632       -0.8087683154
 H          1.1743369188        2.8464206751        0.5036500194
 H          2.3209556539        0.7689140411        1.0933543848
 H          4.1926626500       -1.1034029540       -1.4010079269
 H          3.5827450223       -2.6976654629        1.7573574093
 H          1.3296066604       -3.4673302031        2.4583732986
 H         -0.6375463182       -2.9402055981        1.0728362176
 H         -1.2434694863       -2.5203181711       -1.4821910544
 C         -0.4889921255       -0.8225789365       -2.5014413609
 C         -1.4795722999        0.1443015483       -3.0758656277
 C         -0.1789580795        0.6438942460       -2.5259945361
 H          0.5665440502        1.0021182410       -3.2212396002
 H         -0.1832846627        1.1670856672       -1.5828897223
 H         -1.6256983800        0.1513527060       -4.1456686128
 H         -2.3815249830        0.3342471708       -2.5123807541
 H          0.0384044410       -1.4449543915       -3.2181359336
