  62
        -98.94328898
 C          1.9115219700        1.0176865890        0.5412948304
 C          2.8346583002        1.0380305992       -0.5328886694
 C          4.1658550201        0.4815253090       -0.2433321393
 C          4.4272670299       -0.0195418012        0.9768454906
 C          5.7207209298       -0.6626946214        1.3833133707
 C          5.6908414397       -2.1777871913        1.1381423104
 C          5.2020851600       -2.5691383310       -0.2565721098
 H          5.2510162299       -3.6582078210       -0.3240138300
 H          4.1507614500       -2.2892708009       -0.3583771799
 C          6.0052553102       -1.9491838208       -1.4085793395
 H          6.2033990503       -2.7235774806       -2.1526895996
 H          6.9705885801       -1.5993433609       -1.0407481193
 C          5.2943866804       -0.8055246806       -2.1344915394
 H          4.2893235804       -1.1235530205       -2.4231584796
 H          5.8466492305       -0.5918505204       -3.0534598192
 C          5.1780714603        0.5096218692       -1.3538863091
 H          6.1594630102        0.8004881091       -0.9740721189
 H          4.8365729605        1.2796793994       -2.0516377590
 H          6.6957339297       -2.5731246214        1.2974950205
 H          5.0252836296       -2.6349776815        1.8741892302
 H          6.5368654199       -0.2098808813        0.8236950310
 H          5.8765691196       -0.4791443016        2.4477942408
 O          3.5099008197       -0.0403924014        1.9774698005
 C          2.2358097898        0.4606912787        1.7816170604
 O          1.4887526696        0.3611283985        2.7769500102
 O          2.5839419804        1.4975991694       -1.6767449794
 C          0.4927963900        1.5505646791        0.4086946203
 C         -0.3509390899        0.5360185393       -0.3241505101
 C         -0.4031079696        0.4694051696       -1.7115411801
 C         -1.1883998396       -0.4831195502       -2.3370010004
 C         -1.9431696697       -1.3767577004       -1.5976674308
 C         -1.8930672500       -1.3199199007       -0.2113618008
 C         -1.1003001700       -0.3695364309        0.4149817796
 H         -1.0513974902       -0.3356375911        1.4958211496
 N         -2.6984072102       -2.1997524708        0.5447873989
 S         -4.3479755701       -2.0185986507        0.2811724887
 O         -4.9922503203       -2.4904741609        1.4861004784
 O         -4.7097199499       -2.6956173204       -0.9380618515
 C         -4.5585334100       -0.2573155506        0.0910066590
 C         -4.6827061597        0.2855303997       -1.1717320009
 C         -4.7315568397        1.6637571397       -1.3055794906
 C         -4.6524833898        2.4706357294       -0.1813997104
 C         -4.5359980301        1.9096523392        1.0813909195
 C         -4.4824242701        0.5324781591        1.2210896192
 H         -4.3929743603        0.0602851189        2.1866996291
 H         -4.4779663402        2.5397618690        1.9547898296
 H         -4.6814224197        3.5436084495       -0.2883853002
 H         -4.8227581895        2.1033874699       -2.2854988005
 H         -4.7407402996       -0.3768072601       -2.0194657610
 H         -2.5048061803       -2.1556913210        1.5355921290
 H         -2.5741078897       -2.1136334202       -2.0683476410
 H         -1.2165663594       -0.5278586600       -3.4150314505
 H          0.1943911705        1.1513601297       -2.2943701899
 H          0.1087882499        1.6174830889        1.4354048902
 C          0.4200450202        2.9273969892       -0.2194443794
 C         -0.8761020398        3.6761434893       -0.1476808195
 C          0.2976010701        4.1285666590        0.6666579508
 H          0.8090981202        5.0345763691        0.3779945511
 H          0.2742759899        3.9638947188        1.7342845108
 H         -1.1725682796        4.2726949595       -0.9962354694
 H         -1.6980340599        3.1971527592        0.3635280903
 H          1.0167692304        3.0305503394       -1.1153246293
