  62
        -98.94203992
 C         -2.6747253663       -1.1050386347        0.3443444713
 C         -2.3155968464       -0.3675848495       -0.8127424610
 C         -2.9064779179        0.9739546251       -0.9208774051
 C         -3.7808781414        1.4033450392        0.0059875653
 C         -4.4834644083        2.7336654846        0.0153062962
 C         -3.6646497486        3.8613065210        0.6586144514
 C         -2.4712667963        4.3480459596       -0.1649195286
 H         -2.8050623755        4.6025163872       -1.1712699148
 H         -2.1105804288        5.2667449436        0.3017742177
 C         -1.3083883683        3.3480420387       -0.2476723417
 H         -1.4181303602        2.5932467773        0.5356726443
 H         -0.3614396008        3.8597597810       -0.0569825461
 C         -1.1725153981        2.6423121923       -1.5972483665
 H         -0.9390586049        3.3786866386       -2.3698113258
 H         -0.3276067344        1.9495445672       -1.5345808842
 C         -2.4207083040        1.8582959645       -2.0283852195
 H         -3.2051784045        2.5462075116       -2.3438484310
 H         -2.1490356468        1.2206682866       -2.8728904861
 H         -3.3170934961        3.5256047441        1.6385903888
 H         -4.3386650078        4.7062917520        0.8162624062
 H         -4.7536418517        3.0130769237       -1.0030476542
 H         -5.3985900457        2.5991346799        0.5959914866
 O         -4.1436394166        0.6422387659        1.0732387468
 C         -3.5518679435       -0.5917628266        1.3015793554
 O         -3.8859861660       -1.1257302134        2.3786173047
 H         -0.4024131453       -0.6035902173        1.6539497210
 C          0.1437813238       -1.2818717206        1.0071422141
 C         -0.5387142898       -2.3290605683        0.3985891579
 C          0.1709000141       -3.1828647803       -0.4338980148
 C          1.5211439701       -2.9768674275       -0.6604213308
 C          2.1899951511       -1.9216506785       -0.0686413627
 C          1.4896484562       -1.0624908108        0.7682140023
 N          2.1606787808        0.0245063491        1.3664352566
 S          2.8519431332        1.1414551714        0.3114590521
 O          2.9166159493        2.3776654296        1.0620935276
 O          2.1538356176        1.1913735053       -0.9508494329
 C          4.5027616338        0.5172555911        0.0777224504
 C          5.3049049395        0.3660995037        1.1919257734
 C          6.5911697269       -0.1226669756        1.0285819567
 C          7.0512790039       -0.4477713278       -0.2390049440
 C          6.2346075402       -0.2867421104       -1.3478461704
 C          4.9462513979        0.2008891521       -1.1911836442
 H          4.2718052792        0.3360909769       -2.0218184430
 H          6.5937826489       -0.5400097551       -2.3323792053
 H          8.0524004199       -0.8292031261       -0.3635722641
 H          7.2293110480       -0.2493888091        1.8882141913
 H          4.9086155495        0.6342935269        2.1569800886
 H          1.5919392774        0.5144564949        2.0429745565
 H          3.2375700001       -1.7498268674       -0.2555159762
 H          2.0580504978       -3.6432217809       -1.3182361872
 H         -0.3384497702       -3.9908779841       -0.9324404344
 C         -2.0213848748       -2.4402181862        0.6638484090
 H         -2.1615262678       -2.5719972071        1.7501329167
 C         -2.6716968462       -3.6419194621       -0.0038313437
 C         -4.1159601249       -3.6137164086       -0.4038159566
 C         -3.0483030354       -3.6430423857       -1.4537218727
 H         -2.9119835354       -4.5544044246       -2.0174598365
 H         -2.8529578060       -2.7455427314       -2.0186017230
 H         -4.6605058166       -2.6931707855       -0.2502298806
 H         -4.7083232314       -4.5021333089       -0.2437728586
 H         -2.3087497881       -4.5786679570        0.4077019665
 O         -1.5428724865       -0.7900071666       -1.7092378994
