  62
        -98.93595512
 C         -2.6238901901       -0.3137507559        0.3155643627
 C         -2.4115256732       -1.2603381036       -0.7203487465
 C         -1.6358831810       -2.4551241513       -0.3758114022
 C         -1.1867247860       -2.6076268311        0.8821192445
 C         -0.3456134119       -3.7429448398        1.4001337791
 C          1.0764633833       -3.8115577173        0.8080127268
 C          1.2164134787       -4.7832361600       -0.3711764761
 H          2.1617868673       -5.3206159899       -0.2724973912
 H          0.4231040123       -5.5291625565       -0.3056847689
 C          1.2044847308       -4.1484748803       -1.7653715093
 H          2.1869753616       -3.7164629485       -1.9674128069
 H          1.0367062447       -4.9451714289       -2.4939927431
 C          0.1702375244       -3.0446704150       -1.9904178819
 H          0.4964637076       -2.1259451607       -1.4958745573
 H          0.1353308441       -2.8224946069       -3.0593908913
 C         -1.2497298685       -3.3804651302       -1.4925912146
 H         -1.3124290962       -4.4193200481       -1.1716373907
 H         -1.9719799526       -3.2198544692       -2.2957668951
 H          1.3890004218       -2.8062992019        0.5207059233
 H          1.7420412037       -4.1415695279        1.6075987747
 H         -0.8667485973       -4.6861588957        1.2213078872
 H         -0.2799933915       -3.5930134059        2.4797182058
 O         -1.4757572305       -1.7186624298        1.8683437918
 C         -2.1407583445       -0.5264619389        1.6067137798
 O         -2.2417405645        0.2089012548        2.6093787396
 O         -2.8509586993       -1.1008795040       -1.8921833175
 C         -3.2287423416        1.0075100776       -0.1262757090
 C         -2.1301441726        1.8449414553       -0.7465924528
 C         -2.3450094601        2.5822465317       -1.9046692871
 C         -1.3055709523        3.2766769105       -2.4982276505
 C         -0.0279964716        3.2206546378       -1.9709381409
 C          0.1939699633        2.4941467913       -0.8063656128
 C         -0.8618656644        1.8454654081       -0.1859787984
 H         -0.6711099706        1.2977917003        0.7251837549
 N          1.4752502751        2.3911561911       -0.2401215097
 S          1.8836093454        0.9172633216        0.4866558991
 O          1.3653759858       -0.1865425494       -0.2886302082
 O          1.5077600847        0.9677106655        1.8771203005
 C          3.6612884031        0.9809923093        0.3540918670
 C          4.3007953992        0.2450286798       -0.6248517417
 C          5.6802495694        0.3303494897       -0.7341733206
 C          6.3916412558        1.1493403329        0.1294689841
 C          5.7356323277        1.8823627085        1.1076885535
 C          4.3573461586        1.7993083031        1.2242097479
 H          3.8043041546        2.3402494342        1.9743978132
 H          6.2919618417        2.5161321780        1.7791856318
 H          7.4645404138        1.2149688056        0.0416697112
 H          6.1924890785       -0.2411821654       -1.4911892204
 H          3.7053610723       -0.3805244798       -1.2705298339
 H          2.2067251385        2.7212505509       -0.8552415314
 H          0.7915900264        3.7280539717       -2.4564782649
 H         -1.4849732276        3.8430210145       -3.3993556607
 H         -3.3265287062        2.5875719687       -2.3540413846
 H         -3.9435270737        0.7609719605       -0.9246423984
 C         -3.9567671997        1.7905886145        0.9448201242
 C         -5.0538702491        2.7314550201        0.5476636608
 C         -5.3819570197        1.4562826137        1.2629773014
 H         -5.6986287632        1.5012136552        2.2936633439
 H         -5.8430765549        0.6583502378        0.6994351927
 H         -5.1493676871        3.6619076864        1.0854947665
 H         -5.3043753678        2.7997821287       -0.4998431504
 H         -3.3201997510        2.0790024956        1.7712191554
