  62
        -98.93301095
 C         -2.2982522696       -1.2588233333        0.0733828558
 C         -3.2323352807       -0.6326894643        0.9361323744
 C         -4.1181690652        0.3715408545        0.3282341841
 C         -3.9766064578        0.6610196338       -0.9778486375
 C         -4.7448639212        1.7118487530       -1.7278664826
 C         -4.1816783363        3.1098294962       -1.4015660587
 C         -5.1521424176        4.0204482212       -0.6489212368
 H         -4.5820000582        4.8793034866       -0.2882228518
 H         -5.9029992926        4.3938510828       -1.3483233787
 C         -5.8896222301        3.3803269115        0.5311897691
 H         -6.3250964204        4.1950385991        1.1136227579
 H         -6.7238139395        2.7819206653        0.1620468933
 C         -5.0368657179        2.5102250371        1.4637704740
 H         -3.9873795397        2.8014110158        1.4094909945
 H         -5.3628705364        2.6913647787        2.4901136418
 C         -5.1591165905        0.9947596223        1.2167516996
 H         -6.1553313962        0.7679946900        0.8267443941
 H         -5.0556158185        0.4763787856        2.1747466305
 H         -3.2694455894        2.9831710659       -0.8143746131
 H         -3.8912567487        3.6101678083       -2.3265284075
 H         -4.6349489890        1.4970588194       -2.7909449601
 H         -5.7991185570        1.6528928588       -1.4667486582
 O         -3.0386412817        0.0738766776       -1.7634105894
 C         -2.1702753091       -0.8915661529       -1.2670725108
 O         -1.3593698306       -1.3170345722       -2.1082613009
 O         -3.3177972868       -0.8992377347        2.1658733156
 C         -1.3697334497       -2.2980149558        0.6757196860
 C          0.0579364595       -2.0143915153        0.2792923151
 C          0.8711818343       -2.9214903027       -0.3854619504
 C          2.1738061881       -2.5850482682       -0.7113730035
 C          2.6922352649       -1.3459590487       -0.3855794745
 C          1.8896765663       -0.4317057421        0.2848525235
 C          0.5890341775       -0.7751228741        0.6179676702
 H         -0.0374478700       -0.0611977851        1.1404967844
 N          2.4010754257        0.8381951412        0.6054522816
 S          3.8854896036        0.9295224102        1.3837428021
 O          4.1297154206       -0.2401452481        2.1956724406
 O          3.8691770281        2.1999790357        2.0759875644
 C          5.0655479845        1.0096345304        0.0535381861
 C          4.9190384066        2.0116919586       -0.8854466748
 C          5.8327308154        2.0940244260       -1.9238917436
 C          6.8732336638        1.1802742316       -2.0033409249
 C          7.0086681601        0.1823678844       -1.0504444112
 C          6.0973253878        0.0937609157       -0.0095802400
 H          6.1592745515       -0.6683821683        0.7508090638
 H          7.8181916575       -0.5268335029       -1.1141510821
 H          7.5826770490        1.2467603118       -2.8129957427
 H          5.7302187716        2.8684731692       -2.6669562294
 H          4.0987246515        2.7029642780       -0.7859832020
 H          1.7290476461        1.4477537719        1.0481210912
 H          3.7032179323       -1.0790751205       -0.6464341014
 H          2.7925199399       -3.2974346467       -1.2354480781
 H          0.4797554676       -3.8844001123       -0.6687131179
 H         -1.4512682305       -2.1352716574        1.7642391201
 C         -1.7932746429       -3.7378345809        0.4272614376
 C         -3.2311484967       -4.0909300650        0.1944302524
 C         -2.2370348340       -4.2270268104       -0.9176071393
 H         -1.9445196176       -5.2214491722       -1.2217836596
 H         -2.2632810391       -3.5129539970       -1.7252174066
 H         -3.6195677195       -4.9876111868        0.6536062588
 H         -3.9444891500       -3.2808075641        0.1469692763
 H         -1.2230836203       -4.4346307089        1.0343256764
