  62
        -98.93466754
 C          2.5888120094        1.2297003503        0.4303652318
 C          2.4741192999        0.3967703008       -0.7097334987
 C          3.2833634299       -0.8367225892       -0.6989334589
 C          4.0546270995       -1.1193698497        0.3637235112
 C          4.9815672695       -2.2918815797        0.5628060510
 C          4.4557375697       -3.6794430796        0.1667207901
 C          2.9408352196       -3.8739957297        0.3296496995
 H          2.7591263895       -4.7931633099        0.8900395890
 H          2.5139479594       -3.0525928400        0.9083790297
 C          2.2051403701       -3.9905189291       -1.0079448008
 H          2.7850124904       -4.6385743287       -1.6690145609
 H          1.2403811801       -4.4752896492       -0.8373661714
 C          1.9209352704       -2.6708592587       -1.7257160203
 H          1.1371935501       -2.1202132590       -1.1960442803
 H          1.5203158607       -2.9074537683       -2.7145829006
 C          3.1267734304       -1.7318165686       -1.8939956994
 H          4.0357001005       -2.2922177185       -2.0997852194
 H          2.9199764207       -1.0741565982       -2.7426228392
 H          4.7281824101       -3.8913627991       -0.8661943199
 H          4.9831373795       -4.4061346398        0.7866825800
 H          5.9075951397       -2.0912237594        0.0167042814
 H          5.2260646791       -2.2827957302        1.6275857211
 O          4.1101622891       -0.3047671602        1.4554723616
 C          3.3708875591        0.8638939798        1.5269261919
 O          3.4868078086        1.4756470793        2.6082061122
 H          0.1753806490        0.7118455396        1.6314579807
 C         -0.3346897707        1.2566648400        0.8446057607
 C          0.3535427095        2.2528593903        0.1621877414
 C         -0.3042484601        2.9350081108       -0.8517274685
 C         -1.6127582900        2.6171219709       -1.1725751791
 C         -2.2924498202        1.6236018405       -0.4924817398
 C         -1.6420854606        0.9314889701        0.5209217101
 N         -2.3239076408       -0.0768382803        1.2263712794
 S         -3.1099881004       -1.2719875699        0.3449440585
 O         -3.1607096007       -2.4155133303        1.2310987780
 O         -2.4930926000       -1.4838050693       -0.9430713213
 C         -4.7562835304       -0.6250129998        0.1415277082
 C         -5.4696911708       -0.2947112704        1.2770696281
 C         -6.7528594208        0.2094083296        1.1380322079
 C         -7.2987984403        0.3711153502       -0.1267647222
 C         -6.5711589599        0.0308150408       -1.2568186821
 C         -5.2864175699       -0.4732037393       -1.1245813119
 H         -4.6808424096       -0.7466798488       -1.9741836718
 H         -6.9972228296        0.1565609912       -2.2392104122
 H         -8.2974774603        0.7644863802       -0.2323959924
 H         -7.3219444411        0.4744910192        2.0144848278
 H         -5.0101669912       -0.4400797108        2.2404339482
 H         -1.7749528811       -0.4921093706        1.9654043694
 H         -3.3086375001        1.3693962906       -0.7459298203
 H         -2.1098432797        3.1489917412       -1.9695092790
 H          0.2161460400        3.6945966111       -1.4112207079
 C          1.7843992794        2.5119395102        0.5671927521
 H          1.7898740290        2.7331054597        1.6478171722
 C          2.4022679696        3.7192581805       -0.1211463971
 C          3.8862862396        3.8239683906       -0.3045719565
 C          2.9946083001        3.6476462012       -1.4950379769
 H          2.8543232103        4.4900046715       -2.1566879766
 H          2.9817914103        2.6926688814       -1.9953440474
 H          4.3555133095        4.7836055606       -0.1476802459
 H          4.4899680895        2.9861004105        0.0135639833
 H          1.8871397494        4.6384039604        0.1405258631
 O          1.7458201802        0.6591022212       -1.7000920888
