  62
        -98.93958266
 C         -1.7901917102       -0.6986404622        0.8956923393
 C         -2.9784164945       -1.0948166285        0.2333328106
 C         -4.0544454842       -0.0907851892        0.1867897703
 C         -3.8555450089        1.1269088657        0.7207453603
 C         -4.8411140052        2.2576752793        0.6785335743
 C         -4.6329441640        3.1324106791       -0.5658009803
 C         -4.5315804525        2.3401109305       -1.8692877167
 H         -4.4168342133        3.0621279122       -2.6807986961
 H         -3.6227100355        1.7340345268       -1.8494818890
 C         -5.7373242920        1.4347843909       -2.1573301924
 H         -6.5891852253        1.7480667058       -1.5525365419
 H         -6.0226656529        1.5539782107       -3.2047479350
 C         -5.4780291807       -0.0560309294       -1.9331977690
 H         -4.5721814847       -0.3543124429       -2.4671432699
 H         -6.3114288655       -0.6150280243       -2.3672522262
 C         -5.3437958146       -0.4972069892       -0.4703201395
 H         -5.3584393266       -1.5909245037       -0.4525508172
 H         -6.1987266197       -0.1332284227        0.1031740482
 H         -3.7091140575        3.7016877582       -0.4394317249
 H         -5.4612123906        3.8402291769       -0.6324311147
 H         -5.8512799869        1.8527790918        0.6854232125
 H         -4.6995787595        2.8709056182        1.5701061604
 O         -2.6939297690        1.4828752876        1.3242498733
 C         -1.6445201931        0.5863425180        1.4287930510
 O         -0.6433128294        1.0436202404        2.0135928061
 O         -3.1577277006       -2.2184625771       -0.3068518248
 C         -0.5843561119       -1.6066976379        1.0778009753
 C          0.3363816144       -1.5702881207       -0.1199710115
 C         -0.1563952100       -1.6618958667       -1.4167069597
 C          0.6988985494       -1.6003964901       -2.5023570329
 C          2.0629235265       -1.4595557760       -2.3178428756
 C          2.5679231304       -1.3877176241       -1.0273160240
 C          1.7066206891       -1.4414216353        0.0617349376
 H          2.1068027948       -1.3634175556        1.0636500984
 N          3.9637143654       -1.2481766794       -0.8540255481
 S          4.6180826601        0.2552186619       -1.2054222988
 O          4.0490343484        0.7265751559       -2.4407929180
 O          6.0523719737        0.0875473883       -1.1737232326
 C          4.1095581569        1.2800297893        0.1636200569
 C          5.0286698509        1.6014864046        1.1431855085
 C          4.6028096905        2.3145024393        2.2522089582
 C          3.2669633901        2.6668796689        2.3743759832
 C          2.3536564891        2.3313554614        1.3859927689
 C          2.7792596995        1.6384011455        0.2634943284
 H          2.0934530237        1.3685443694       -0.5241554706
 H          1.3074573320        2.5686835770        1.4984533471
 H          2.9285106682        3.2027338026        3.2472096729
 H          5.3082687419        2.5815915889        3.0226829139
 H          6.0527309297        1.2903859229        1.0134047845
 H          4.2879608047       -1.5420949829        0.0572117876
 H          2.7411574046       -1.3912204846       -3.1523953518
 H          0.2989212893       -1.6642296554       -3.5031639135
 H         -1.2176124160       -1.7850162372       -1.5683318340
 H         -0.0301009532       -1.1948165421        1.9325684655
 C         -0.9540724961       -3.0430785025        1.3982739903
 C          0.0038116620       -3.8900390036        2.1779763177
 C         -1.2713689541       -3.4221791535        2.8118917569
 H         -2.0588916068       -4.1393455878        2.9872809450
 H         -1.2133239404       -2.6466703078        3.5621155325
 H          0.0967008993       -4.9329742896        1.9169640835
 H          0.9264197764       -3.4363684729        2.5069579697
 H         -1.5273912701       -3.5205495177        0.6148696146
