  62
        -98.94372697
 C          1.9661248391        1.2652534301       -0.2038835884
 C          2.3049799093        0.0711735710       -0.8856172298
 C          3.7308630593       -0.2919538190       -0.8694730501
 C          4.6104341492        0.5032608003       -0.2345325189
 C          6.0767360092        0.2183399402       -0.0901165490
 C          6.3650674790       -0.5702110714        1.1951889200
 C          5.4645461491       -1.7905102317        1.3878932083
 H          5.7788482190       -2.2840823129        2.3100393577
 H          4.4353729490       -1.4557036420        1.5375326486
 C          5.5039828594       -2.7981667602        0.2305388670
 H          6.3942573994       -2.6309884394       -0.3768407826
 H          5.5787319194       -3.8056683307        0.6451512758
 C          4.2670581195       -2.7782535492       -0.6695247432
 H          4.2990708697       -3.6622217283       -1.3122697343
 H          3.3645855494       -2.8530846400       -0.0570283634
 C          4.1274387496       -1.5538399180       -1.5826862516
 H          3.3220665697       -1.7611888872       -2.2937506720
 H          5.0519850396       -1.4058094672       -2.1445897213
 H          7.4097201290       -0.8860399713        1.1789207298
 H          6.2243934188        0.0964075375        2.0490732309
 H          6.6098781391        1.1696028602       -0.0495966077
 H          6.4193120394       -0.3424113386       -0.9575516097
 O          4.2482755990        1.6473414695        0.3997479325
 C          2.9240917189        2.0483940693        0.4432522628
 O          2.7290425487        3.1054470885        1.0763828541
 O          1.4721650095       -0.6595077384       -1.4828463409
 C          0.5223104190        1.7381681698       -0.1235624680
 C         -0.2530457710        0.7523677887        0.7159715206
 C         -0.0607530512        0.7664896969        2.0961595807
 C         -0.7018640413       -0.1484859742        2.9077438494
 C         -1.5543068311       -1.0920431935        2.3602212080
 C         -1.7491418209       -1.1191280818        0.9844738079
 C         -1.1029314008       -0.1962664707        0.1704565992
 H         -1.2465273907       -0.2592439493       -0.8944233709
 N         -2.5844754707       -2.0892927611        0.4099122466
 S         -3.6811996906       -1.7135288797       -0.7913898531
 O         -4.5151621304       -2.8908430396       -0.8938992448
 O         -3.0034198004       -1.3020889781       -1.9928510825
 C         -4.6350899608       -0.3619602006       -0.1240722516
 C         -5.7651539709       -0.6536584016        0.6151975979
 C         -6.4858644211        0.3865688776        1.1786740491
 C         -6.0611776711        1.6948157779        1.0016603008
 C         -4.9231260610        1.9705578489        0.2596089814
 C         -4.1999834709        0.9346846497       -0.3108607798
 H         -3.3137870808        1.1141789105       -0.8964736095
 H         -4.5935874311        2.9877957991        0.1202121527
 H         -6.6210491913        2.5049565672        1.4416309518
 H         -7.3735441411        0.1751248668        1.7527899186
 H         -6.0644976008       -1.6840834518        0.7183936865
 H         -2.9923973908       -2.7331116420        1.0717997957
 H         -2.0535521112       -1.8117940944        2.9911446370
 H         -0.5412137715       -0.1269046755        3.9750455494
 H          0.6124722786        1.5000918665        2.5185421217
 H          0.5529852289        2.6935763991        0.4182757532
 C         -0.0593315807        1.9836658015       -1.4990206778
 C         -1.2332657408        2.9025733316       -1.6491076668
 C          0.1209848593        3.3319178324       -2.1267136560
 H          0.3017658394        3.3852767537       -3.1898495259
 H          0.6525113291        4.0795124417       -1.5557125850
 H         -1.9827563906        2.6643876025       -2.3893664172
 H         -1.6212998010        3.3652457605       -0.7539783563
 H         -0.0005222206        1.1226371024       -2.1536077789
