  62
        -98.94503150
 C         -1.2071294251       -1.8147746893       -0.6745664183
 C         -0.5414326241       -2.3458177085        0.4598712212
 C          0.8811016173       -2.6861083985        0.2643079588
 C          1.4587885730       -2.4885707759       -0.9329432872
 C          2.9015292024       -2.7496254035       -1.2529009260
 C          3.7701501163       -1.5067415458       -1.0176119253
 C          3.5802416616       -0.8624968679        0.3556485889
 H          4.2919685989       -0.0366674952        0.4297500534
 H          2.5827295511       -0.4230734854        0.4213284688
 C          3.7745032975       -1.8143060776        1.5435273720
 H          4.3710448686       -1.3053615480        2.3036050824
 H          4.3313045498       -2.6988703819        1.2300402382
 C          2.4690819666       -2.2415245789        2.2183104074
 H          2.7155930126       -2.6941948436        3.1831139316
 H          1.8591763346       -1.3563596400        2.4184876862
 C          1.6178191281       -3.2561194629        1.4432703745
 H          2.2407634635       -4.0996801840        1.1353091297
 H          0.8470177305       -3.6288288562        2.1247208477
 H          4.8161723797       -1.7933033171       -1.1417249942
 H          3.5276790201       -0.7610412311       -1.7782299976
 H          2.9704237886       -3.0337894046       -2.3045551523
 H          3.2584906331       -3.5752494784       -0.6401508013
 O          0.7841495432       -1.9950936378       -2.0031563433
 C         -0.5480027024       -1.6321599500       -1.8937240540
 O         -1.0363630261       -1.1689260391       -2.9438424467
 O         -1.0832675177       -2.5481645768        1.5755356330
 C         -2.6481222448       -1.3246602440       -0.6679212801
 C         -2.6599829489        0.1725271987       -0.4781598241
 C         -3.4403041765        0.9948795179       -1.2818761047
 C         -3.4051436288        2.3690350699       -1.1242658231
 C         -2.5704252011        2.9480957083       -0.1855259355
 C         -1.7818972384        2.1352031614        0.6213357195
 C         -1.8518827896        0.7558967780        0.4880808425
 H         -1.2497642520        0.1338766063        1.1332871250
 N         -0.9075447139        2.6938388394        1.5708830927
 S          0.6859525158        2.1824869315        1.6277291633
 O          0.7544422735        0.8141188945        2.0644037008
 O          1.3445532683        3.1589632224        2.4672638741
 C          1.2837533011        2.3347152782       -0.0450681842
 C          1.0118088767        1.3283150115       -0.9494378333
 C          1.4345304815        1.4679494314       -2.2615260358
 C          2.1264878087        2.6066509298       -2.6442609922
 C          2.3969032765        3.6083868057       -1.7236657104
 C          1.9672525474        3.4771385674       -0.4130175596
 H          2.1593850276        4.2280245442        0.3362183301
 H          2.9381034368        4.4907172850       -2.0251108562
 H          2.4562415199        2.7102131295       -3.6659761105
 H          1.2068726754        0.6851048902       -2.9691524466
 H          0.4746825005        0.4499979649       -0.6271365922
 H         -0.9455651165        3.7021751813        1.6215035699
 H         -2.5240999253        4.0210551134       -0.0776967512
 H         -4.0179702114        2.9972865026       -1.7522401873
 H         -4.0621984507        0.5512727381       -2.0451444934
 H         -3.0330991176       -1.5258013536       -1.6813084692
 C         -3.5550189338       -2.0544627030        0.3099247082
 C         -4.0246401222       -1.4541050700        1.5971380644
 C         -4.9858447511       -1.6292221140        0.4620854986
 H         -5.7450693271       -2.3925157649        0.5397559513
 H         -5.3017593196       -0.7410524518       -0.0639791884
 H         -4.0988059200       -2.1062701537        2.4538818567
 H         -3.6971747108       -0.4557675841        1.8438555934
 H         -3.3605362845       -3.1214644583        0.3226266403
