  62
        -98.93335355
 C         -2.2592594708       -0.7800077996        0.5706181233
 C         -2.6081271040       -0.1004239190       -0.6235978636
 C         -3.5220128734        1.0400691946       -0.4584174749
 C         -3.9374922038        1.4003073419        0.7683732842
 C         -4.8526168545        2.5492571432        1.0948910115
 C         -6.3446981285        2.2202526245        0.9486927696
 C         -6.8440137587        2.0866426099       -0.4905787719
 H         -7.9350837538        2.0770550701       -0.4508046413
 H         -6.5469761285        2.9678444316       -1.0599847433
 C         -6.3654356768        0.8190313426       -1.2122119110
 H         -6.0037267482        0.0962020884       -0.4772709944
 H         -7.2082132748        0.3546362614       -1.7291491922
 C         -5.2706589876        1.0560735100       -2.2524676704
 H         -4.9812526164        0.0891222292       -2.6713406711
 H         -5.6640409662        1.6713887231       -3.0645919531
 C         -4.0083459882        1.7287550438       -1.6978284209
 H         -3.2194004422        1.6518298448       -2.4498140101
 H         -4.2003780696        2.7825650962       -1.4974664625
 H         -6.5539804681        1.2972165350        1.4944365224
 H         -6.9039144044        3.0250061849        1.4315941918
 H         -4.6589216196        2.8141551792        2.1366576676
 H         -4.6043368934        3.4054017879        0.4669894623
 O         -3.5385814847        0.7497162578        1.8952040181
 C         -2.7046659251       -0.3524787932        1.8221580517
 O         -2.4257062680       -0.8555952143        2.9319232133
 O         -2.1873493190       -0.4104672494       -1.7643255746
 C         -1.3339599205       -1.9924157223        0.5560085714
 C         -0.0279198558       -1.5820632188       -0.0807037034
 C          0.4085084264       -1.8707001347       -1.3667129979
 C          1.6260458173       -1.3906995382       -1.8216418884
 C          2.4320978439       -0.6031367369       -1.0226625186
 C          2.0026525509       -0.2907656198        0.2606827278
 C          0.7923947174       -0.7863314323        0.7169646652
 H          0.4612869478       -0.5377957059        1.7189730149
 N          2.7955345451        0.5378344358        1.0776681091
 S          4.3902188478        0.0744026581        1.3347183731
 O          4.5351964421       -1.3628455054        1.2943565957
 O          4.7797310483        0.7233805324        2.5676959100
 C          5.2788118903        0.8149888044       -0.0183121180
 C          6.0932113269        0.0331123442       -0.8139323033
 C          6.7854821551        0.6310980106       -1.8555324008
 C          6.6520800649        1.9925838813       -2.0808405272
 C          5.8321168136        2.7641521317       -1.2705840150
 C          5.1386260416        2.1731996197       -0.2264833180
 H          4.4927310947        2.7365882036        0.4263614946
 H          5.7304501364        3.8224462507       -1.4496098524
 H          7.1898312497        2.4554536171       -2.8931633757
 H          7.4235111557        0.0332208767       -2.4862843001
 H          6.1589488372       -1.0226881446       -0.6052429951
 H          2.3561414626        0.7709709846        1.9569378080
 H          3.3748843482       -0.2243420036       -1.3817780175
 H          1.9448386222       -1.6290302681       -2.8249776122
 H         -0.2009170426       -2.4454669923       -2.0393291029
 H         -1.1079959049       -2.1795867191        1.6183171585
 C         -2.0873635704       -3.2310839150        0.0932857670
 C         -2.4757260913       -3.5508759531       -1.3170075752
 C         -1.4614507628       -4.3985902092       -0.6081290087
 H         -1.7580886222       -5.3898426376       -0.2981926931
 H         -0.4248084485       -4.3246962972       -0.8944159621
 H         -3.4612353334       -3.9654724086       -1.4770865016
 H         -2.1696374597       -2.8733835408       -2.0965661082
 H         -2.8376484884       -3.4801660570        0.8415912502
