  62
        -98.94848382
 C         -2.3376672992       -0.6842813523        0.1735993311
 C         -1.5454785801       -0.0548829714       -0.8160134091
 C         -1.7370287714        1.3941588485       -0.9731082386
 C         -2.6130817316        2.0349031176       -0.1798049881
 C         -2.9094418928        3.5053974374       -0.2326897175
 C         -2.0240294831        4.3019020878        0.7340871023
 C         -0.5332980928        3.9817339491        0.6206847216
 H         -0.0057261231        4.6476212893        1.3081038416
 H         -0.3495668118        2.9623169592        0.9693890612
 C          0.0480084764        4.1413175000       -0.7910320286
 H         -0.6091836843        4.7665069796       -1.3975022082
 H          1.0082110660        4.6559283307       -0.7136664389
 C          0.3100144172        2.8169080604       -1.5106990991
 H          0.8451670281        2.1469347206       -0.8330493995
 H          0.9622650567        3.0139273111       -2.3660269793
 C         -0.9319863224        2.0856820195       -2.0372681088
 H         -1.5566849932        2.7807891591       -2.6029714983
 H         -0.5920883120        1.2978997100       -2.7158667491
 H         -2.1838793740        5.3659929377        0.5473234727
 H         -2.3423248324        4.0849193973        1.7565423524
 H         -2.7622503135        3.8607780478       -1.2509633275
 H         -3.9549860728        3.6517592164        0.0457661229
 O         -3.3274812106        1.4062996967        0.7894730721
 C         -3.1859506094        0.0460298368        1.0081467116
 O         -3.8650820586       -0.3931167140        1.9592120018
 H         -0.2929590682       -1.0207746010        1.8498936501
 C          0.0938284623       -1.8407675006        1.2612907298
 C         -0.7684306775       -2.5763072211        0.4567070199
 C         -0.2447521369       -3.6246703604       -0.2886226306
 C          1.1089280934       -3.9118685793       -0.2405067012
 C          1.9698925530       -3.1461345888        0.5235899786
 C          1.4545607625       -2.0934646294        1.2712952091
 N          2.2896616921       -1.2494568489        2.0356338490
 S          2.3891299206        0.3476908513        1.5299480394
 O          3.2950943604        0.9839395918        2.4629297192
 O          1.0693083500        0.9142060302        1.4373336501
 C          3.1712584300        0.2548270524       -0.0717049610
 C          2.4454316799       -0.1850261080       -1.1608547108
 C          3.0936830895       -0.3164822371       -2.3801862711
 C          4.4412984892       -0.0123703759       -2.4901627816
 C          5.1546469293        0.4279585544       -1.3851669617
 C          4.5166786697        0.5579645835       -0.1626916214
 H          5.0278585998        0.8967525337        0.7240720484
 H          6.2024050390        0.6669593852       -1.4714617021
 H          4.9373070489       -0.1186797353       -3.4421132318
 H          2.5316204794       -0.6596614473       -3.2338822209
 H          1.3944081701       -0.4113466089       -1.0634798404
 H          3.2267262224       -1.6102903082        2.1564134285
 H          3.0300416232       -3.3508494279        0.5373876981
 H          1.5014428638       -4.7297453188       -0.8252284316
 H         -0.8906792067       -4.2047550208       -0.9267737905
 C         -2.2233124378       -2.1742281123        0.4529450106
 H         -2.6079098673       -2.3005259329        1.4792640108
 C         -3.0893279775       -3.0439258327       -0.4471002492
 C         -4.3260387282       -2.4981486436       -1.0946782386
 C         -3.1355279482       -2.8511567724       -1.9320545092
 H         -3.1959608978       -3.7266444823       -2.5617991694
 H         -2.5431271891       -2.0515426418       -2.3470800892
 H         -5.1988580677       -3.1320099143       -1.1428981984
 H         -4.5547369790       -1.4535426038       -0.9390780382
 H         -3.1545517265       -4.0647483629       -0.0833989895
 O         -0.7271251399       -0.6667060105       -1.5512864596
