  62
        -98.94435631
 C          2.2602621976        1.0717861343        0.2679081213
 C          2.4137395207       -0.0581099579       -0.5715430683
 C          3.3370905773       -1.0937389449       -0.0878229038
 C          3.9348316495       -0.9617343983        1.1093374008
 C          4.8739465597       -1.9479777995        1.7487292475
 C          6.3304188094       -1.8169667356        1.2821851834
 C          6.6051194495       -2.3057425575       -0.1405226119
 H          7.6893532772       -2.3601843158       -0.2564080068
 H          6.2141335984       -3.3169372350       -0.2578185727
 C          6.0361842077       -1.4004560952       -1.2419232556
 H          6.7944151186       -1.2437686347       -2.0123606664
 H          5.7993096187       -0.4203885978       -0.8216435256
 C          4.7922648392       -1.9534678537       -1.9375007473
 H          5.0487811677       -2.8689883001       -2.4751833398
 H          4.4525650897       -1.2166354007       -2.6697790253
 C          3.6222559155       -2.2553032640       -0.9919073837
 H          2.7288137443       -2.4359301195       -1.5950989263
 H          3.8321480424       -3.1502273340       -0.4063519278
 H          6.9455831164       -2.4021138433        1.9695588186
 H          6.6330090099       -0.7712763007        1.3731509442
 H          4.5204226531       -2.9630198402        1.5646645403
 H          4.8380104295       -1.7575004409        2.8235610897
 O          3.7271164758        0.1168486794        1.9094146357
 C          2.9110732025        1.1577649365        1.5037689554
 O          2.8437465966        2.0977210951        2.3206840267
 O          1.8249498022       -0.2211384993       -1.6745284408
 C          1.3728472792        2.2585156448       -0.0814506067
 C         -0.0733375925        1.9263817140        0.1992917875
 C         -0.7369830041        2.5037645626        1.2757539276
 C         -2.0515847099        2.1721543012        1.5524863860
 C         -2.7290624403        1.2579968140        0.7653436889
 C         -2.0698161953        0.6651992170       -0.3032537619
 C         -0.7559464999        1.0085400314       -0.5861276937
 H         -0.2420470339        0.5280583731       -1.4053136945
 N         -2.7442110846       -0.2766186605       -1.1029966070
 S         -3.4780887858       -1.5669460588       -0.3156974738
 O         -2.8161008479       -1.8748529161        0.9318288258
 O         -3.5354733418       -2.6309674901       -1.2944185599
 C         -5.1317655659       -0.9831790213       -0.0032665626
 C         -5.6320825573       -0.9845283523        1.2840032227
 C         -6.9240852862       -0.5311602847        1.5013393530
 C         -7.6886718066       -0.0877089035        0.4331781842
 C         -7.1724352896       -0.0957351522       -0.8542105102
 C         -5.8822893301       -0.5487951043       -1.0784087656
 H         -5.4448295005       -0.5753879963       -2.0623838785
 H         -7.7701699812        0.2496374749       -1.6822631673
 H         -8.6929159534        0.2660929911        0.6052412651
 H         -7.3270119172       -0.5249301748        2.5014271904
 H         -4.9981997435       -1.3330915187        2.0839487802
 H         -2.1803091455       -0.6137602351       -1.8710858475
 H         -3.7513122737        0.9917094168        0.9792473784
 H         -2.5541249022        2.6289646738        2.3914457024
 H         -0.2061126882        3.2014370189        1.9074241321
 H          1.6701131763        3.0601697023        0.6075231961
 C          1.5740070980        2.7495422988       -1.5015886732
 C          1.1494125239        4.1423444087       -1.8531895685
 C          2.6063325943        3.8004157546       -1.7722474006
 H          3.1759205170        3.7386817668       -2.6874553140
 H          3.1726699526        4.1732732991       -0.9309636551
 H          0.7158300388        4.3184041134       -2.8255224391
 H          0.7277661677        4.7490008440       -1.0661290082
 H          1.4464786445        1.9787824145       -2.2497461068
