  62
        -98.94066373
 C         -1.8748241911       -1.5718980383       -0.0840572993
 C         -1.6124557393       -0.4316793513       -0.8765109091
 C         -2.7170992079        0.5332862495       -1.0184793523
 C         -3.8938475992        0.2739026864       -0.4231083759
 C         -5.1036958001        1.1646733789       -0.3821354536
 C         -5.0974077671        2.0159828174        0.8991921726
 C         -4.3195169538        3.3278719906        0.7990934722
 H         -4.8736281267        4.0245352895        0.1664773981
 H         -4.2806622912        3.7577239155        1.8026293106
 C         -2.8906505957        3.2108061512        0.2601944555
 H         -2.3989597959        2.3432532317        0.7049816202
 H         -2.3421448009        4.0974211418        0.5847197742
 C         -2.8288173661        3.1245726352       -1.2725702004
 H         -3.7960766090        3.4185093921       -1.6803605886
 H         -2.1034993624        3.8502367036       -1.6467642253
 C         -2.4262362033        1.7548770233       -1.8465269022
 H         -2.8918418720        1.6294880375       -2.8295181852
 H         -1.3440626946        1.7282976990       -2.0091087606
 H         -4.6853499020        1.4032696126        1.7051975901
 H         -6.1287913395        2.2548910428        1.1662994370
 H         -5.1519165636        1.7892916675       -1.2693629507
 H         -5.9774693013        0.5102372799       -0.3619185791
 O         -4.1166909994       -0.8557252772        0.3027345131
 C         -3.1201499707       -1.7918044345        0.5061206324
 O         -3.4569650683       -2.7588458591        1.2183854239
 H          1.8769252385       -2.0435991201       -0.4706262091
 C          1.5942778126       -1.7188545883        0.5163843922
 C          0.3083315059       -1.9184655871        0.9920806938
 C         -0.0104818286       -1.4645072452        2.2708983954
 C          0.9324589647       -0.8276680897        3.0527362016
 C          2.2132542284       -0.6193974421        2.5696515146
 C          2.5418112511       -1.0659298551        1.2963905021
 N          3.8429169534       -0.8825996012        0.7884041196
 S          4.0446492881       -0.0188357325       -0.6350985452
 O          3.4255920279       -0.7209149060       -1.7272872055
 O          5.4747890582        0.1832980797       -0.7355946194
 C          3.2472188609        1.5444866750       -0.3146334539
 C          4.0249536886        2.5898312838        0.1464220262
 C          3.4138859670        3.7879181503        0.4771550981
 C          2.0382149779        3.9156241809        0.3551680185
 C          1.2731811045        2.8557233161       -0.1052280893
 C          1.8778291496        1.6547927587       -0.4460342862
 H          1.2993628458        0.8218604253       -0.8151158317
 H          0.2025653115        2.9473593132       -0.2008693574
 H          1.5593226870        4.8457379866        0.6181551829
 H          4.0085954183        4.6144516283        0.8315710758
 H          5.0907336462        2.4455991758        0.2229646562
 H          4.4952663538       -0.5318799324        1.4765601714
 H          2.9536793447       -0.1190330983        3.1754380298
 H          0.6698828852       -0.4859208964        4.0424150872
 H         -1.0146954426       -1.6234225203        2.6407132302
 C         -0.7784285991       -2.5893005124        0.1856709731
 H         -1.2366470532       -3.3644736728        0.8165180882
 C         -0.2895269096       -3.2331006901       -1.0930892864
 C          0.3955119704       -4.5641897640       -1.0346755522
 C         -0.9863714114       -4.4562934188       -1.6045700128
 H         -1.1162003988       -4.5676982962       -2.6706782412
 H         -1.8115828466       -4.8398813868       -1.0218755134
 H          1.2182359014       -4.7490980579       -1.7088231695
 H          0.5091582804       -5.0252836264       -0.0650298694
 H          0.0580762251       -2.5161847668       -1.8275384015
 O         -0.5050318211       -0.2140012642       -1.4344624406
