  62
        -98.93739308
 C         -1.8612131447       -0.5878527299       -0.7725718549
 C         -2.1987276352       -0.0992360804        0.5106578924
 C         -3.6317685790       -0.1207126891        0.8583801840
 C         -4.5152193574       -0.6002541280       -0.0343675226
 C         -6.0114682499       -0.6643679437        0.1020009791
 C         -6.6676677706        0.5819546488       -0.5159443091
 C         -6.7996064967        1.7754790572        0.4293040480
 H         -7.1538540299        2.6217480633       -0.1638327735
 H         -7.5648019204        1.5572224072        1.1772631707
 C         -5.5128840837        2.1846615069        1.1509347533
 H         -5.6282014930        3.2196556105        1.4786237645
 H         -4.6747530341        2.1582560021        0.4523077782
 C         -5.2016832645        1.3086919503        2.3736851919
 H         -6.0803500946        0.7111608523        2.6161593960
 H         -5.0151868630        1.9487746644        3.2384776502
 C         -3.9774795570        0.3919953585        2.2297794593
 H         -3.0804337270        0.9269426294        2.5570102296
 H         -4.0916041137       -0.4642399144        2.9030046709
 H         -6.0814509090        0.8687762149       -1.3927663405
 H         -7.6672431796        0.3149867723       -0.8650306398
 H         -6.3375174109       -1.5430117405       -0.4586512337
 H         -6.2992782482       -0.7859263749        1.1420084693
 O         -4.1438390393       -1.0661925669       -1.2595488940
 C         -2.8206641516       -1.0728394098       -1.6595368528
 O         -2.6273046175       -1.5327993665       -2.8037820017
 H          2.1323129432       -0.1007031967       -0.2918125507
 C          1.7146363968       -1.0135453401        0.0988155580
 C          0.4358227528       -1.4081822210       -0.2631050286
 C         -0.0613436775       -2.6038236542        0.2489789283
 C          0.6915930893       -3.3685018145        1.1180390883
 C          1.9673420683       -2.9706426009        1.4770835210
 C          2.4814225229       -1.7895594480        0.9579743411
 N          3.7677763390       -1.3548685425        1.3075020816
 S          4.7581233828       -0.6480026633        0.1608299788
 O          4.5305428150       -1.1975337088       -1.1552251138
 O          6.0966094983       -0.8068632423        0.6897914895
 C          4.3373456101        1.0815414436        0.1889327639
 C          4.0176738747        1.6791028664        1.3919348197
 C          3.7385855021        3.0363125577        1.4105495336
 C          3.7922909208        3.7713037372        0.2358800527
 C          4.1207518726        3.1575769146       -0.9628622431
 C          4.3965058664        1.7992109104       -0.9892375698
 H          4.6443909513        1.2795582585       -1.9011689070
 H          4.1618960382        3.7301123559       -1.8760532420
 H          3.5754250545        4.8277922500        0.2541969142
 H          3.4789447872        3.5162514784        2.3404282782
 H          3.9808453836        1.0790842950        2.2857550462
 H          4.2809169126       -1.9800482135        1.9115556090
 H          2.5590383824       -3.5689127178        2.1532838015
 H          0.2858398252       -4.2874070480        1.5141884101
 H         -1.0538643473       -2.9234636474       -0.0391344069
 C         -0.4112902062       -0.6014355759       -1.2176148997
 H         -0.3959814245       -1.1118499070       -2.1927000900
 C          0.0824534294        0.8190378183       -1.4045154107
 C          1.1195245376        1.1357734675       -2.4382698690
 C         -0.3027212652        1.5573830576       -2.6499309557
 H         -0.5467339372        2.6062161728       -2.5742105078
 H         -0.8946637355        1.0220805249       -3.3784760410
 H          1.5041269863        0.3181070983       -3.0297361268
 H          1.8503767286        1.8980084807       -2.2136935331
 H          0.0992538642        1.3765479738       -0.4749266397
 O         -1.3477630418        0.3378945141        1.3284415115
