  62
        -98.94271317
 C         -1.9841688304       -1.4598133699       -0.0891862788
 C         -1.7024936500       -0.1278609702       -0.4776979994
 C         -2.8717063398        0.7244898400       -0.7443991999
 C         -4.1088030999        0.2153743503       -0.6085833298
 C         -5.3808657497        0.9914845806       -0.7851323803
 C         -5.8434265097        1.6043959013        0.5445508194
 C         -4.7431062796        2.3519049014        1.2983701291
 H         -5.1932390596        2.7626891820        2.2047764189
 H         -3.9792056398        1.6379959214        1.6150450795
 C         -4.0794391593        3.4824118709        0.4995495586
 H         -3.9885126991        4.3590040411        1.1443859882
 H         -4.7150940091        3.7634796906       -0.3409805816
 C         -2.6750118393        3.1586398203       -0.0137293311
 H         -2.0594243495        2.7881220305        0.8099892292
 H         -2.2232193290        4.0880120400       -0.3706305915
 C         -2.6058752994        2.1436191097       -1.1616036006
 H         -3.2854691793        2.4445347695       -1.9614573008
 H         -1.5856690694        2.1532600893       -1.5565638605
 H         -6.2117615500        0.8003479817        1.1860930497
 H         -6.6738034895        2.2830894414        0.3412287990
 H         -6.1524417799        0.3110068306       -1.1493187500
 H         -5.2237696495        1.7750787502       -1.5238086307
 O         -4.3415721503       -1.0685548394       -0.2328971092
 C         -3.2930209605       -1.9276155895        0.0539993713
 O         -3.6493844309       -3.0627405293        0.4277247718
 O         -0.5421946099        0.3412676595       -0.5954318695
 C         -0.8722848807       -2.4386130501        0.2465542418
 C          0.1694217194       -1.7651298099        1.1075270416
 C         -0.2268131106       -1.2300715592        2.3315407013
 C          0.6848676795       -0.6050973890        3.1588009211
 C          2.0138824895       -0.5034675895        2.7854700011
 C          2.4228311995       -1.0403620602        1.5709863614
 C          1.5029232295       -1.6716501504        0.7424046417
 H          1.8444740695       -2.0576034809       -0.2028724781
 N          3.7761441796       -0.9907274807        1.1954970215
 S          4.2851320999       -0.4874339616       -0.3153714286
 O          3.6677464198       -1.2886116619       -1.3397951483
 O          5.7293569998       -0.5490703819       -0.2432108085
 C          3.7821676103        1.2198938685       -0.4436356995
 C          4.7505393905        2.2004180883       -0.3385141199
 C          4.3705000608        3.5310715184       -0.3961136406
 C          3.0312393609        3.8587552386       -0.5467471609
 C          2.0729601707        2.8623363988       -0.6437048705
 C          2.4449733704        1.5273414887       -0.5945655098
 H          1.7039692102        0.7476077389       -0.6671863695
 H          1.0276127108        3.1036157690       -0.7540975507
 H          2.7323790712        4.8944423987       -0.5886360714
 H          5.1162696010        4.3061923482       -0.3212287709
 H          5.7788243704        1.8983108481       -0.2214816296
 H          4.3816452496       -0.5936935905        1.8999294314
 H          2.7289413096       -0.0158145994        3.4307057110
 H          0.3602162895       -0.1906895185        4.1015230408
 H         -1.2667605406       -1.3070543488        2.6209130312
 H         -1.3548561409       -3.2204043596        0.8572825921
 C         -0.2779752107       -3.1412483408       -0.9648670078
 C         -1.0895541507       -3.3911710712       -2.1999093478
 C          0.0450285196       -2.4138949315       -2.2337392681
 H          0.9500155796       -2.6801679719       -2.7607320679
 H         -0.1840220502       -1.3611366414       -2.2781237687
 H         -0.9726329509       -4.3378695214       -2.7056982973
 H         -2.0986606106       -3.0055078709       -2.2243420681
 H          0.4045453290       -3.9354736708       -0.6761532874
