  62
        -98.93672984
 C         -1.7858970014       -1.0125787803       -0.2116050701
 C         -3.1482998114       -1.3962366401       -0.1592776800
 C         -4.1436836913       -0.3549955698       -0.4702983395
 C         -3.7175867011        0.8880592102       -0.7528802490
 C         -4.5559577410        2.1024200805       -1.0424488383
 C         -4.8179622807        2.9036785200        0.2442710421
 C         -6.0448930006        2.4612829998        1.0405749620
 H         -6.0418333304        3.0198188694        1.9794058123
 H         -6.9478961707        2.7433085202        0.4950710723
 C         -6.1137167008        0.9655659697        1.3592728014
 H         -5.1299729808        0.6100590494        1.6713822411
 H         -6.7883066107        0.8341186294        2.2075827014
 C         -6.6243765311        0.1204982803        0.1828314011
 H         -7.0456715211        0.7806550407       -0.5751245086
 H         -7.4411483612       -0.5191044297        0.5239898709
 C         -5.5797179914       -0.8033091196       -0.4592448195
 H         -5.5656819514       -1.7603999598        0.0720439801
 H         -5.8832315515       -1.0240132791       -1.4884739995
 H         -3.9259955206        2.8312345296        0.8717831219
 H         -4.9479494805        3.9553954001       -0.0186734075
 H         -3.9754897910        2.7243311907       -1.7271052281
 H         -5.4859950111        1.8222226909       -1.5280392783
 O         -2.3993647311        1.2248782300       -0.7556706390
 C         -1.4024593812        0.2993918298       -0.4883205795
 O         -0.2527844111        0.7731019796       -0.5256589495
 O         -3.5197620816       -2.5616406802        0.1455002495
 C         -0.7417360115       -2.0714020706        0.0894234193
 C          0.3087355287       -1.5344930112        1.0297290394
 C         -0.0905712310       -1.0591424517        2.2770232097
 C          0.8344861892       -0.5605782822        3.1723408698
 C          2.1794710491       -0.5291587223        2.8464201996
 C          2.5915264989       -1.0087574918        1.6092681694
 C          1.6571771587       -1.5115320213        0.7117231093
 H          2.0029890585       -1.8603544209       -0.2461059709
 N          3.9568827488       -1.0358786319        1.2830721992
 S          4.5762721187       -0.5870869013       -0.2014351007
 O          3.9512500585       -1.3473361908       -1.2525924110
 O          6.0054189387       -0.7602030916       -0.0551569510
 C          4.2178956690        1.1523782188       -0.3750343399
 C          2.9144620290        1.5652123291       -0.5648995396
 C          2.6555242992        2.9239926392       -0.6625594689
 C          3.6917331394        3.8400393390       -0.5737993887
 C          4.9957189693        3.4074356187       -0.3831788790
 C          5.2623866191        2.0524252786       -0.2781924596
 H          6.2593751891        1.6700910084       -0.1296750799
 H          5.8017979394        4.1202552885       -0.3148171988
 H          3.4811400495        4.8950059791       -0.6536198982
 H          1.6352921692        3.2436352094       -0.8045013986
 H          2.1096267689        0.8506582993       -0.6294013098
 H          4.5636521790       -0.7025473123        2.0183152192
 H          2.9041125693       -0.1407116027        3.5458554297
 H          0.5082193994       -0.1903515126        4.1326814500
 H         -1.1419588610       -1.0806596616        2.5310544098
 H         -1.2975883115       -2.8616314907        0.6225624191
 C         -0.1492847918       -2.7216317302       -1.1520379510
 C         -0.9171789619       -2.8077692895       -2.4360004010
 C          0.2867243082       -1.9214999697       -2.3413445507
 H          1.1942942481       -2.2127939096       -2.8503743510
 H          0.1367271584       -0.8537148897       -2.3066700802
 H         -0.8461010822       -3.7166638292       -3.0143799514
 H         -1.8916143719       -2.3423636093       -2.4716991306
 H          0.4596442181       -3.5863316604       -0.9042389915
