  62
        -98.94091580
 C          2.2886184036        0.8989085243       -0.2020319137
 C          3.5998887653        1.2099770368        0.2322658974
 C          4.6718367618        0.3760420521       -0.3216697652
 C          4.3723168372       -0.5973693711       -1.2010680166
 C          5.3573327397       -1.5135941385       -1.8755313015
 C          5.7488065483       -2.7371477784       -1.0355376367
 C          6.6631601154       -2.4431814808        0.1544114803
 H          7.0307689187       -3.4037574117        0.5206001412
 H          7.5273551777       -1.8719416118       -0.1858083891
 C          5.9774104131       -1.7034503564        1.3115623120
 H          4.8931510385       -1.7835272004        1.2027263789
 H          6.2399021464       -2.1831982499        2.2571550463
 C          6.3554211544       -0.2270713154        1.4320253826
 H          5.7864659512        0.2062242080        2.2585136019
 H          7.4172805659       -0.1390800889        1.6717781267
 C          6.0684823242        0.6028679441        0.1737004017
 H          6.7921201202        0.3670481819       -0.6060328243
 H          6.1615783640        1.6605667263        0.4314724232
 H          4.8364765707       -3.2245069547       -0.6836661495
 H          6.2639057533       -3.4358217871       -1.6988333524
 H          4.8768768699       -1.8643131569       -2.7914520886
 H          6.2531849975       -0.9535662155       -2.1450897141
 O          3.0991649127       -0.8550225252       -1.6053770879
 C          2.0255836609       -0.1336694001       -1.1016377911
 O          0.9153571147       -0.5019079419       -1.5328567556
 O          3.8602041570        2.1377543476        1.0440659307
 C          1.1257535044        1.7088482012        0.3430079085
 C          0.1720949776        0.7962782538        1.0730650826
 C          0.6660578591        0.0241606234        2.1223977595
 C         -0.1584637612       -0.8440723502        2.8094012232
 C         -1.4916511762       -0.9664603221        2.4582138265
 C         -1.9979553801       -0.1940643535        1.4203545542
 C         -1.1694606823        0.6913551958        0.7429896300
 H         -1.5838907145        1.2730889860       -0.0618643835
 N         -3.3642118207       -0.2714584068        1.0833216339
 S         -3.8316558095       -0.3874726449       -0.5366997395
 O         -3.3169040429       -1.6069648992       -1.1212415425
 O         -3.5198637044        0.8425202630       -1.2164996135
 C         -5.5981408933       -0.5172439016       -0.3197381931
 C         -6.3111819080        0.6327730387       -0.0389032974
 C         -7.6794725947        0.5414252113        0.1597324860
 C         -8.3091227831       -0.6916662340        0.0750549844
 C         -7.5811073314       -1.8367146729       -0.2102598307
 C         -6.2116800368       -1.7520595480       -0.4084521948
 H         -5.6064718350       -2.6137214055       -0.6407127910
 H         -8.0736164961       -2.7932885065       -0.2793945653
 H         -9.3743677437       -0.7601984652        0.2294271346
 H         -8.2492340716        1.4300297412        0.3789384174
 H         -5.7801905006        1.5690317536        0.0085548761
 H         -3.8314659881       -1.0044106626        1.6028959395
 H         -2.1350774745       -1.6545638924        2.9859949600
 H          0.2393341259       -1.4384700032        3.6183397024
 H          1.7116813023        0.1120202164        2.3855742156
 H          1.5703990451        2.3989762244        1.0756927429
 C          0.4766901671        2.5212532614       -0.7563050185
 C         -0.2599635875        3.7822404804       -0.4204033220
 C          1.0623941857        3.8509246917       -1.1217825467
 H          1.0824144129        4.1358642769       -2.1630098575
 H          1.9234862625        4.1833744060       -0.5605213151
 H         -1.1534197400        4.0170297647       -0.9790374891
 H         -0.2986293378        4.0744048880        0.6180976950
 H          0.0919469732        1.9056631760       -1.5628201020
