  62
        -98.94509391
 C          0.8806969394        1.1256411942        0.7399252351
 C          1.1440071571        0.4764626930       -0.4918373797
 C          2.0952495357       -0.6427115048       -0.4217146882
 C          2.5095912322       -1.0973217320        0.7729391877
 C          3.4706182283       -2.2313781234        1.0056035520
 C          4.9452148431       -1.8088664303        0.9411944133
 C          5.4688235267       -1.4906550425       -0.4601963368
 H          6.5558726482       -1.4204245156       -0.3860748087
 H          5.2416758534       -2.3214898421       -1.1287167105
 C          4.9304703886       -0.1832853547       -1.0587435758
 H          4.5083113645        0.4354444452       -0.2632852709
 H          5.7554775537        0.3828296093       -1.4969400982
 C          3.8787185473       -0.3720740855       -2.1524837707
 H          3.5456049347        0.6162002636       -2.4797294420
 H          4.3306655499       -0.8741684968       -3.0105252254
 C          2.6445739157       -1.1714264954       -1.7114353425
 H          2.8997045342       -2.2256430893       -1.6153156031
 H          1.8690694026       -1.0585988728       -2.4720323593
 H          5.0890188044       -0.9416249438        1.5902146331
 H          5.5386775330       -2.6300031554        1.3500215945
 H          3.2662197051       -2.6154482984        2.0075748900
 H          3.2900919273       -3.0260343341        0.2813779979
 O          2.0692952641       -0.5674722619        1.9470248708
 C          1.3012100519        0.5863107656        1.9575622481
 O          1.0479385258        1.0194382393        3.1007475523
 O          0.6412504730        0.8096636981       -1.5934853644
 C          0.0785440351        2.4126480655        0.8068314633
 C         -1.1577406704        2.3054344905       -0.0493890152
 C         -1.4142911183        3.1179257566       -1.1458584138
 C         -2.5776022822        2.9556401657       -1.8768836179
 C         -3.5027880004        1.9871826521       -1.5339901795
 C         -3.2559760557        1.1716533028       -0.4349855543
 C         -2.0927840004        1.3380526174        0.2980961611
 H         -1.9100161423        0.7080471770        1.1572989115
 N         -4.1844284015        0.1941609957       -0.0491417622
 S         -3.7043652950       -1.1891636563        0.7374658717
 O         -4.8135060703       -2.1021374705        0.5512481374
 O         -3.3640253130       -0.8986561396        2.1084960226
 C         -2.2853234388       -1.8317770994       -0.1315099963
 C         -1.2277652409       -2.3328524741        0.5985188860
 C         -0.1787418820       -2.9430412583       -0.0693879748
 C         -0.2008999391       -3.0314972645       -1.4519141437
 C         -1.2595361569       -2.5037936377       -2.1732259883
 C         -2.3173546103       -1.9053524654       -1.5095054411
 H         -3.1601755054       -1.5030847501       -2.0473162266
 H         -1.2662581564       -2.5618291364       -3.2496346966
 H          0.6121104008       -3.5142130019       -1.9699512030
 H          0.6466969952       -3.3473285417        0.4943442615
 H         -1.2432721793       -2.2349501147        1.6733589428
 H         -4.9452094277        0.0337450465       -0.6918832772
 H         -4.4087126527        1.8604617824       -2.1065849043
 H         -2.7633346355        3.5880247086       -2.7316582113
 H         -0.6930872699        3.8611419123       -1.4428340114
 H         -0.2516118433        2.4906834471        1.8563568506
 C          0.9056574027        3.6574798517        0.5154241522
 C          2.3614924477        3.7130062769        0.8684101512
 C          1.9390810519        3.7002670706       -0.5682742569
 H          2.0448340620        4.6107665786       -1.1396873488
 H          2.0982126227        2.8023283080       -1.1436538903
 H          2.7541604888        4.6283747043        1.2850500815
 H          2.8094570095        2.8203297958        1.2812634461
 H          0.3380752228        4.5672598752        0.6854929141
