  62
        -98.93080590
 C         -2.2740238982       -1.0749775954        0.2538782950
 C         -2.5213885236        0.2201258447        0.7735512771
 C         -3.7609741113        0.8943467451        0.3465540788
 C         -4.6012982553        0.2449323199       -0.4785999444
 C         -5.9160375334        0.7104610387       -1.0515851644
 C         -6.8730196866        1.4259542458       -0.0856971780
 C         -7.0137330392        2.9230315963       -0.3661291493
 H         -7.0366197301        3.0734684974       -1.4473896571
 H         -7.9722469340        3.2644300779        0.0309547443
 C         -5.9230471166        3.8025738823        0.2426539224
 H         -6.0583168118        3.8492288431        1.3254157080
 H         -6.0593165968        4.8147092701       -0.1454852872
 C         -4.4874774920        3.3575128541       -0.0442960341
 H         -4.3900751959        3.0196519028       -1.0753754226
 H         -3.8385672058        4.2288582316        0.0674861129
 C         -3.9761532201        2.2710770438        0.9139063038
 H         -2.9980002150        2.5613994798        1.3103522256
 H         -4.6390426317        2.1955070253        1.7809762335
 H         -6.5531406000        1.2613438259        0.9420486563
 H         -7.8580812227        0.9694092509       -0.1944801918
 H         -5.7108376309        1.3508223332       -1.9129930700
 H         -6.3892402596       -0.1934236817       -1.4416188561
 O         -4.3290790212       -1.0046233980       -0.9470112187
 C         -3.1742324624       -1.6923793925       -0.6137326765
 O         -3.0966148525       -2.8163592668       -1.1453068107
 H          1.1797577343       -0.1497846388        0.6242265674
 C          1.1208138733       -0.7786499281       -0.2528190972
 C          0.0613587483       -1.6624427082       -0.4033879257
 C         -0.0025953125       -2.4418277870       -1.5542384836
 C          0.9811422317       -2.3415004691       -2.5207335532
 C          2.0516261095       -1.4808637108       -2.3541180357
 C          2.1168692402       -0.6870367151       -1.2149724471
 N          3.1752460035        0.2169614098       -1.0319938403
 S          3.7520994439        0.4725289549        0.5341035634
 O          3.8202478231       -0.7830349115        1.2472032912
 O          2.9773199220        1.5191220434        1.1519265105
 C          5.3947522048        1.0698957467        0.1795316500
 C          6.4603374102        0.1910920766        0.2289351769
 C          7.7290305897        0.6579493547       -0.0772970002
 C          7.9091315111        1.9873098770       -0.4287062516
 C          6.8299165317        2.8576294154       -0.4733545303
 C          5.5589777653        2.3978347186       -0.1671476024
 H          4.6923459450        3.0382886862       -0.1781227215
 H          6.9741240991        3.8910629778       -0.7443080142
 H          8.8972163605        2.3483791024       -0.6664748814
 H          8.5703318671       -0.0151690702       -0.0400028547
 H          6.2731741009       -0.8314281664        0.5150089499
 H          3.9271337326        0.0819073216       -1.6940204681
 H          2.8258036328       -1.4157593547       -3.1036524307
 H          0.9198073017       -2.9509085823       -3.4097847486
 H         -0.8393246310       -3.1082475532       -1.6918904943
 C         -0.9852648180       -1.7565363872        0.6816883085
 H         -0.6215890063       -1.1693553545        1.5365310113
 C         -1.1822214596       -3.1894351555        1.1363997334
 C         -0.0969432517       -3.8440132747        1.9357643788
 C         -1.3928988634       -3.4744246835        2.5915325697
 H         -2.0754135382       -4.2641348901        2.8676315102
 H         -1.3994836508       -2.6336946433        3.2702582154
 H          0.7776943741       -3.2525777062        2.1655016678
 H          0.1119953625       -4.8884768201        1.7626719017
 H         -1.7262333168       -3.7994089203        0.4274796226
 O         -1.7350862005        0.7965908622        1.5747227578
