  62
        -98.93979372
 C         -2.4752899741       -1.0667416717       -0.1097616900
 C         -3.7123334923       -1.0851721808        0.5788417361
 C         -4.8345702095       -0.4325138451       -0.1037494021
 C         -4.6469916690        0.1219867110       -1.3153416634
 C         -5.6968752215        0.8090499379       -2.1458630142
 C         -5.9140972738        2.2836669673       -1.7796504903
 C         -6.6422264400        2.5247823936       -0.4567317297
 H         -6.9176863206        3.5809607769       -0.4306691506
 H         -7.5667662869        1.9467870641       -0.4413305529
 C         -5.8102010903        2.2018221963        0.7922924811
 H         -4.7530366846        2.1451127251        0.5216772957
 H         -5.9103107577        3.0134286465        1.5166574750
 C         -6.2098990217        0.9087593947        1.5032918178
 H         -5.5345484720        0.7607510690        2.3499831362
 H         -7.2246409374        1.0050522643        1.8958189551
 C         -6.1441761337       -0.3443693880        0.6202449273
 H         -6.9724083704       -0.3495189060       -0.0878441719
 H         -6.2278644821       -1.2226758635        1.2649706932
 H         -4.9434754750        2.7847491534       -1.7578978813
 H         -6.5032810303        2.7351409050       -2.5811818726
 H         -5.3551786855        0.7587507972       -3.1818685617
 H         -6.6407993290        0.2695885517       -2.0641053259
 O         -3.4457953764        0.1040456017       -1.9511970858
 C         -2.3265839843       -0.4642070430       -1.3590054845
 O         -1.2888960836       -0.3773112248       -2.0421399882
 O         -3.8700992092       -1.6206050232        1.7088696240
 C         -1.2601894502       -1.6871278005        0.5580136081
 C         -0.2532639125       -0.5986824919        0.8383230975
 C         -0.6148937999        0.4277232011        1.7081146099
 C          0.2553516813        1.4654556614        1.9781034070
 C          1.5043901566        1.5075615361        1.3826731736
 C          1.8768399716        0.4883186931        0.5179727282
 C          1.0047109977       -0.5641166942        0.2604551776
 H          1.3072655918       -1.3473604350       -0.4166858748
 N          3.1323356394        0.5340855731       -0.1131154201
 S          4.4662253336        1.0000031312        0.8098100171
 O          4.4773790975        0.2818108298        2.0651507073
 O          4.4777861456        2.4380177075        0.9098513810
 C          5.8040068482        0.4559546623       -0.2333861531
 C          6.2032739640        1.2680139965       -1.2778816391
 C          7.2255398046        0.8365248463       -2.1079591881
 C          7.8271467864       -0.3926551774       -1.8817660252
 C          7.4161399235       -1.1960379334       -0.8287579528
 C          6.3934533984       -0.7711281913        0.0047202802
 H          6.0479935619       -1.3584143378        0.8404301424
 H          7.8879529818       -2.1495613862       -0.6539820537
 H          8.6234251111       -0.7254541089       -2.5286744958
 H          7.5497005380        1.4591172371       -2.9262028225
 H          5.7126703745        2.2181963329       -1.4098767086
 H          3.3244865767       -0.3059205364       -0.6412993236
 H          2.1930090372        2.3130310854        1.5808466953
 H         -0.0392405984        2.2533228229        2.6555377081
 H         -1.5936516447        0.3997496132        2.1679418810
 H         -1.6232347138       -2.0702550322        1.5226314287
 C         -0.7192111630       -2.8442640241       -0.2530805162
 C          0.1391034974       -3.8801218534        0.4079940650
 C         -1.2601665567       -4.2195141285       -0.0071090061
 H         -1.4034675976       -4.8751058223       -0.8528639535
 H         -2.0113178056       -4.3286925863        0.7613422863
 H          0.9567788823       -4.3082492305       -0.1518785189
 H          0.3414675711       -3.7605195482        1.4617093264
 H         -0.4983457107       -2.5729403116       -1.2789880276
