  62
        -98.94375306
 C         -1.7207930562       -0.4187577288        0.6021406600
 C         -2.9451762052       -0.3331369093        1.3065464863
 C         -4.1519796486       -0.6313245745        0.5273191660
 C         -4.0410309212       -0.9776335349       -0.7682659619
 C         -5.1771242048       -1.3291186513       -1.6902813540
 C         -5.8612703977       -0.1126287607       -2.3289587601
 C         -6.7353649706        0.7134001073       -1.3844231335
 H         -7.4394015016        0.0557431848       -0.8736130529
 H         -7.3193128665        1.3968417675       -2.0041616107
 C         -5.9512251141        1.5336071786       -0.3505347752
 H         -6.3525146015        2.5488788265       -0.3106981180
 H         -4.9080909993        1.6144907163       -0.6652931837
 C         -5.9973466351        0.9726777270        1.0709156260
 H         -7.0221988547        1.0104416137        1.4468727451
 H         -5.3810192296        1.6093029692        1.7110785644
 C         -5.4823274847       -0.4670357789        1.1982985408
 H         -6.2085523365       -1.1645105990        0.7816239895
 H         -5.3497121924       -0.6910106628        2.2596352438
 H         -6.4914249399       -0.4824554042       -3.1410860323
 H         -5.0938830967        0.5283000021       -2.7692082847
 H         -5.9163741588       -1.9233687106       -1.1525781521
 H         -4.7511146099       -1.9414939603       -2.4878301392
 O         -2.8426141742       -1.0677137236       -1.4034389407
 C         -1.6568050903       -0.7704024022       -0.7463220241
 O         -0.6395956203       -0.8624088085       -1.4579526892
 O         -3.0254487350       -0.0204557653        2.5250842234
 C         -0.4281690948       -0.0996163674        1.3312404730
 C          0.2662736768        1.0565548081        0.6557967047
 C         -0.4524342406        2.2264761430        0.4196163157
 C          0.1369088731        3.3006675871       -0.2167027834
 C          1.4576274060        3.2350677667       -0.6262252203
 C          2.1861474026        2.0762502692       -0.3896385441
 C          1.5901790003        0.9988737665        0.2531256053
 H          2.1723446939        0.1118632248        0.4331404739
 N          3.5120653056        1.9674948650       -0.8246472290
 S          4.6364404771        1.0575190252        0.0049601621
 O          4.4769823022        1.1834450428        1.4351439027
 O          5.9108374990        1.4931212454       -0.5260108455
 C          4.3402347757       -0.6238848910       -0.4995796313
 C          4.5078027128       -1.6339849906        0.4270398642
 C          4.3030044359       -2.9468799284        0.0338586872
 C          3.9385630291       -3.2253559973       -1.2742974126
 C          3.7804151458       -2.2000900420       -2.1940831601
 C          3.9855370658       -0.8853730067       -1.8076929239
 H          3.8613188171       -0.0664449737       -2.4963461576
 H          3.4915687178       -2.4200322707       -3.2092617985
 H          3.7742247325       -4.2472546987       -1.5781404503
 H          4.4249705599       -3.7460927058        0.7477275213
 H          4.7824471099       -1.3696367254        1.4361500418
 H          3.9088287425        2.7981084960       -1.2371704091
 H          1.9182303947        4.0715857219       -1.1293797886
 H         -0.4339947963        4.1995661231       -0.3956072415
 H         -1.4847804258        2.2779483130        0.7385702263
 H         -0.7314839102        0.2238678234        2.3382810896
 C          0.4307140924       -1.3400184186        1.4560522858
 C          1.4199409114       -1.4622212153        2.5749668924
 C          0.1722259284       -2.2917431337        2.5838681417
 H          0.2555016788       -3.3510108172        2.3934674563
 H         -0.6110784703       -2.0334116478        3.2814660273
 H          2.3609148091       -1.9521918624        2.3767570948
 H          1.4935748034       -0.6392832156        3.2699724682
 H          0.6932705186       -1.7644879771        0.4931352690
