  62
        -98.94185856
 C          1.7171078430        0.1181484380        0.4523971284
 C          2.8248611947        0.8454840914        0.9602756840
 C          4.1400328082        0.2151692237        0.8046780154
 C          4.2288952798       -1.0134716278        0.2651188448
 C          5.4947804445       -1.7995916911        0.0568007509
 C          6.2415777323       -1.4452480021       -1.2365126411
 C          6.9482741597       -0.0890055859       -1.2292242863
 H          7.5809107289       -0.0152960183       -0.3441342812
 H          7.6044482421       -0.0655655260       -2.1015719123
 C          6.0027325800        1.1188522479       -1.2908442491
 H          6.3721955946        1.8333798604       -2.0299060126
 H          5.0166381186        0.7916415520       -1.6293190907
 C          5.8493769649        1.8720553298        0.0307818263
 H          6.8065283760        2.3167641656        0.3116463209
 H          5.1322997532        2.6834937700       -0.1185043635
 C          5.3509408069        1.0069865894        1.1959859538
 H          6.1449467834        0.3446608746        1.5399484864
 H          5.0644912303        1.6686106933        2.0170331059
 H          6.9924734867       -2.2213163589       -1.4021391049
 H          5.5353541721       -1.4841782443       -2.0693531785
 H          6.1578232977       -1.6607092932        0.9112281587
 H          5.2032480091       -2.8510802930        0.0094076830
 O          3.1368070793       -1.7103544162       -0.1438958678
 C          1.8585044508       -1.1628416570       -0.0835708960
 O          0.9725098575       -1.9196343210       -0.5212980021
 O          2.7172616312        1.9672937246        1.5221228892
 C          0.3507724146        0.7713303511        0.5577622322
 C         -0.6725523869       -0.2062100278        1.0738946824
 C         -0.5653608037       -0.6604435300        2.3861746556
 C         -1.4748103155       -1.5653388454        2.8970371135
 C         -2.5251514976       -2.0193099534        2.1181062524
 C         -2.6399339514       -1.5733297242        0.8075378215
 C         -1.7168232553       -0.6729573235        0.2924931360
 H         -1.8002408559       -0.3823761217       -0.7405872667
 N         -3.6920343019       -2.0123300315       -0.0064103416
 S         -4.3572936484       -0.9970946179       -1.1480407650
 O         -5.7023373819       -1.5006186040       -1.3338192570
 O         -3.5417840874       -0.9471256961       -2.3350406376
 C         -4.4135650591        0.6141179923       -0.3803593390
 C         -5.0251436451        0.7398023908        0.8513469027
 C         -5.0650382237        1.9853620214        1.4563397369
 C         -4.4991442973        3.0805878262        0.8218191603
 C         -3.8976816784        2.9407301859       -0.4190488468
 C         -3.8522028836        1.6959806932       -1.0268724156
 H         -3.3878526938        1.5406850099       -1.9878225818
 H         -3.4601351910        3.7938895569       -0.9130185905
 H         -4.5274863365        4.0491075524        1.2955925145
 H         -5.5345950717        2.0980820359        2.4201463929
 H         -5.4631930473       -0.1277345189        1.3169690705
 H         -4.3808192944       -2.5933065057        0.4466719866
 H         -3.2391291384       -2.7249937855        2.5146244097
 H         -1.3724982962       -1.9159577297        3.9129419142
 H          0.2528804086       -0.3029424228        2.9963250433
 H          0.4849333953        1.5554153671        1.3217798681
 C         -0.0990854091        1.4783224947       -0.7119615983
 C          0.8917420211        2.1060555445       -1.6444777272
 C          0.1187473685        0.8973848937       -2.0755190574
 H         -0.6603607245        1.0131708128       -2.8156136316
 H          0.6315813459       -0.0498900753       -2.1409382777
 H          0.6487353076        3.0597721367       -2.0879589749
 H          1.9408397556        1.9849535711       -1.4165576414
 H         -1.0277113830        2.0202736119       -0.5592417942
