  62
        -98.93332603
 C         -2.5056773624       -1.4614664440        0.2239310837
 C         -2.3564684073       -0.2807947595       -0.5462622626
 C         -3.4888896802        0.6606117444       -0.5056527721
 C         -4.5868147362        0.3650989886        0.2108381848
 C         -5.8488004405        1.1804704511        0.3103577364
 C         -5.7194810981        2.5544451859        0.9958663598
 C         -5.4785439338        3.7226427054        0.0317761834
 H         -5.8637385546        3.4516386304       -0.9519863544
 H         -6.0602846034        4.5824122039        0.3701701096
 C         -4.0260897114        4.1915815493       -0.0999132119
 H         -3.7660918316        4.7985389608        0.7703383559
 H         -3.9599296305        4.8349287884       -0.9800363618
 C         -2.9757258692        3.0865542134       -0.2155220164
 H         -2.0243891103        3.5437967323       -0.4966335386
 H         -2.8152019658        2.6275720758        0.7633140215
 C         -3.3241080284        1.9705531904       -1.2195652263
 H         -4.2253945164        2.2212904470       -1.7773419416
 H         -2.5038740145        1.8412084520       -1.9289355927
 H         -4.9324826485        2.5131161778        1.7484406550
 H         -6.6592195964        2.7350425024        1.5201063025
 H         -6.2601117838        1.3139584657       -0.6927371894
 H         -6.5479277389        0.5637647624        0.8788338654
 O         -4.6939696271       -0.7848229164        0.9307305343
 C         -3.6569440842       -1.6993657311        0.9820749521
 O         -3.8787262238       -2.6762877453        1.7247107604
 H          0.6535393642       -1.8591739373       -1.3356156036
 C          0.8427500539       -1.5610011944       -0.3162751620
 C         -0.1011764134       -1.8286549228        0.6612818755
 C          0.1440922363       -1.4009334045        1.9624000236
 C          1.3102059295       -0.7277317981        2.2748119348
 C          2.2487566523       -0.4563243600        1.2944652599
 C          2.0023532118       -0.8601856789       -0.0104843894
 N          2.9409195379       -0.5801862373       -1.0167016938
 S          3.6657266640        0.9314030359       -1.0632549518
 O          2.8220478398        1.9655824516       -0.5117053737
 O          4.0812921055        1.1040717197       -2.4387085742
 C          5.1177233591        0.7249659505       -0.0501797692
 C          5.9565312646       -0.3387320273       -0.3197868211
 C          7.0963132248       -0.5046135868        0.4504921375
 C          7.3792727580        0.3925171747        1.4696990452
 C          6.5295915441        1.4575605460        1.7256943477
 C          5.3871613497        1.6282859715        0.9591292877
 H          4.6947682492        2.4384065260        1.1255861872
 H          6.7508798224        2.1547542550        2.5178637086
 H          8.2670478347        0.2610413572        2.0679563166
 H          7.7594633023       -1.3317177564        0.2544396895
 H          5.7027473430       -1.0115497600       -1.1216766362
 H          2.6347933091       -0.8562851403       -1.9386588472
 H          3.1519866525        0.0835327414        1.5274620876
 H          1.4894343713       -0.4053825641        3.2893943595
 H         -0.5986052013       -1.5942995503        2.7246652157
 C         -1.4085327776       -2.5084112253        0.3417726709
 H         -1.6953827297       -3.1184040987        1.2129929909
 C         -1.3092795155       -3.4633574327       -0.8387236410
 C         -2.5520142889       -3.9995540201       -1.4830014023
 C         -1.6520151213       -3.0753658961       -2.2441789727
 H         -1.0558970676       -3.4886682269       -3.0452226321
 H         -1.9829704611       -2.0653057559       -2.4261732656
 H         -3.4977750732       -3.6153409496       -1.1288737532
 H         -2.5804849130       -5.0414521928       -1.7638736528
 H         -0.4885914328       -4.1639738285       -0.7164503525
 O         -1.3499423947       -0.0109899360       -1.2519285777
