  62
        -98.93891988
 C          2.5318621112        0.3438400393        0.1143882261
 C          2.3999044353       -0.5817068309        1.1812485324
 C          2.2277735984       -1.9973606161        0.8243566260
 C          2.2184178834       -2.3407903864       -0.4749616182
 C          1.9429664209       -3.6986418140       -1.0577920256
 C          0.4483720992       -3.8291403941       -1.4027787951
 C         -0.4289086282       -4.3440375827       -0.2631175066
 H         -1.4650107984       -4.2840175335       -0.6048045970
 H         -0.2004450887       -5.3959119412       -0.0758243809
 C         -0.2997559105       -3.5641273775        1.0478956395
 H         -0.2570860952       -2.4963954259        0.8211033772
 H         -1.2065587440       -3.7361976394        1.6314233533
 C          0.9179731599       -3.9860449903        1.8842920424
 H          1.3085265909       -4.9236778310        1.4884474320
 H          0.5972755048       -4.1907413487        2.9076529587
 C          2.0538582897       -2.9538277387        1.9723259286
 H          3.0006094248       -3.4792867804        2.1350322988
 H          1.8958797770       -2.3114684793        2.8439935699
 H          0.3390693752       -4.5069580366       -2.2524034933
 H          0.0844441051       -2.8460456308       -1.7166381217
 H          2.5229939520       -3.7708866004       -1.9802100404
 H          2.2606500441       -4.4843691100       -0.3781518234
 O          2.4071666485       -1.4337610477       -1.4680036071
 C          2.5094988466       -0.0774221907       -1.2146822289
 O          2.5899276580        0.6129427870       -2.2535670684
 O          2.4081511052       -0.2281335533        2.3916714051
 C          2.5329174857        1.8142429012        0.5093974022
 C          1.0859832489        2.2456137684        0.5619150195
 C          0.4911256262        2.6868770138        1.7375123496
 C         -0.8715745442        2.9276770586        1.7929355557
 C         -1.6728343317        2.6953518000        0.6882908110
 C         -1.0820891092        2.2655405708       -0.4917539049
 C          0.2870801106        2.0801163496       -0.5609606740
 H          0.7274375353        1.7329828618       -1.4845681958
 N         -1.9113895549        1.8948138141       -1.5902813480
 S         -2.2475692900        0.2375185806       -1.4908906486
 O         -1.0775148232       -0.5277318480       -1.1203243656
 O         -2.8668103757       -0.1180796096       -2.7498070532
 C         -3.4482291836        0.1877383069       -0.1811511563
 C         -4.7425041351        0.5845758518       -0.4556285982
 C         -5.6712919526        0.5916652290        0.5726177814
 C         -5.2901360870        0.2078455283        1.8499818657
 C         -3.9864919003       -0.1877989926        2.1085017358
 C         -3.0526469118       -0.1975120401        1.0842049863
 H         -2.0270699608       -0.4941307848        1.2405842115
 H         -3.6896700948       -0.4848509537        3.1014913911
 H         -6.0132515746        0.2164491008        2.6502025830
 H         -6.6861572567        0.8976406038        0.3761047590
 H         -4.9911641361        0.8701051739       -1.4642445777
 H         -1.4586544040        2.0583159255       -2.4809372454
 H         -2.7408950664        2.8338341487        0.7309796041
 H         -1.3184693952        3.2677550524        2.7142206544
 H          1.0998195135        2.8069735896        2.6214209923
 H          2.9327069920        1.8481402296        1.5317662451
 C          3.3691070045        2.7212216479       -0.3658961648
 C          3.8312863040        4.0344142344        0.1893195940
 C          4.8158314523        2.9273670295       -0.0357985566
 H          5.5193902383        3.0147427057       -0.8497951943
 H          5.2096398007        2.4104444951        0.8270792282
 H          3.8590534641        4.8888499382       -0.4690790580
 H          3.5602281847        4.2706764301        1.2070028754
 H          3.1020296971        2.6815512061       -1.4135461340
