  62
        -98.94518399
 C          1.8139673388        1.4076837300       -0.0496216840
 C          2.9201589859        0.6980668424        0.4800738994
 C          3.3020651774       -0.5293955940       -0.2237745734
 C          2.6083833376       -0.9180642834       -1.3088013120
 C          2.8587991542       -2.1571633165       -2.1234491029
 C          2.1761299679       -3.4032912142       -1.5423572652
 C          2.8409200176       -3.9782132092       -0.2908627557
 H          2.4131892151       -4.9695406849       -0.1279248889
 H          3.9094024109       -4.1069997290       -0.4701657651
 C          2.6243304088       -3.1382873602        0.9758995083
 H          2.3489128875       -3.7962653745        1.8044382669
 H          1.7788553175       -2.4624220383        0.8188743990
 C          3.8468026580       -2.3349464131        1.4232762567
 H          3.5673183192       -1.7495354892        2.3034617196
 H          4.6456490017       -3.0206124136        1.7157477016
 C          4.3960012001       -1.3671164294        0.3666830612
 H          5.1060188277       -0.6949729886        0.8554078724
 H          4.9167148947       -1.9198352103       -0.4148016481
 H          2.1765852380       -4.1729857041       -2.3179608484
 H          1.1360246655       -3.1547714544       -1.3135216142
 H          2.4456580817       -1.9685638258       -3.1166108687
 H          3.9308720867       -2.3328291111       -2.2171798814
 O          1.5700503875       -0.2004477288       -1.8027801011
 C          1.0968721859        0.9262383992       -1.1479704748
 O          0.0648997286        1.4027817514       -1.6565211435
 H          0.2811415645        0.4566274580        1.8901926060
 C         -0.5073390157        1.1395887633        1.5952593346
 C         -0.1705686485        2.3555166787        1.0110895019
 C         -1.1953226012        3.2132360158        0.6367340390
 C         -2.5189305363        2.8433602852        0.8100738051
 C         -2.8467895135        1.6029615698        1.3271886343
 C         -1.8264450144        0.7473837908        1.7197390620
 N         -2.1549040092       -0.5756706602        2.1431942929
 S         -1.9591710009       -1.6467245928        0.8458332953
 O         -2.2910474466       -2.9562085866        1.3690336662
 O         -0.6413069077       -1.5381755530        0.2574615086
 C         -3.2203618311       -1.0916294717       -0.2733797102
 C         -2.9121166529       -0.1658534716       -1.2501507780
 C         -3.9323872991        0.2991753145       -2.0666905091
 C         -5.2277462981       -0.1626226843       -1.8922461552
 C         -5.5179622603       -1.0928642626       -0.9048577084
 C         -4.5060174931       -1.5608096429       -0.0830987184
 H         -4.6784194511       -2.2828448666        0.6980510179
 H         -6.5264456412       -1.4498319690       -0.7714659434
 H         -6.0156967088        0.2063379576       -2.5298669059
 H         -3.7026060194        1.0258601865       -2.8293271061
 H         -1.8962553118        0.1839754142       -1.3601459237
 H         -1.5626042865       -0.8986972442        2.8979449847
 H         -3.8722596702        1.2845243442        1.4208178990
 H         -3.3047739223        3.5173328710        0.5062072903
 H         -0.9574739503        4.1572427764        0.1743624922
 C          1.2933112569        2.5966243719        0.7446813123
 H          1.8340563522        2.5362675657        1.7047676770
 C          1.6035275062        3.9640468070        0.1601429944
 C          2.7978460053        4.1660509193       -0.7227772025
 C          1.4172482263        4.2857701463       -1.2911373844
 H          1.0579782535        5.2704642295       -1.5523215230
 H          1.0534064784        3.5008620630       -1.9342859613
 H          3.3857420408        5.0627185216       -0.5959169748
 H          3.3808091405        3.2926478002       -0.9781617140
 H          1.3896698766        4.7612341145        0.8657462361
 O          3.5475302232        1.0653490309        1.5117174642
