  62
        -98.94383244
 C          0.5977214313        2.1707461397        0.5787234005
 C         -0.3662046195        1.3512870700        1.2179501397
 C         -1.7731655392        1.6859753407        0.9428339388
 C         -2.0683363982        2.6627017809        0.0684667987
 C         -3.4559439677        3.0614714215       -0.3420557822
 C         -3.9234610472        2.2880984618       -1.5822488826
 C         -3.7318748279        0.7739740117       -1.4855058726
 H         -2.6641061380        0.5389044613       -1.4920464619
 H         -4.1531396975        0.3371163920       -2.3945135730
 C         -4.3866685790        0.1260144319       -0.2576416231
 H         -4.8917728192       -0.7883989879       -0.5763484136
 H         -5.1476523790        0.7913033322        0.1529561964
 C         -3.4010622300       -0.2689355886        0.8431705175
 H         -2.5681870799       -0.8191778489        0.3983192680
 H         -3.9114268007       -0.9426127185        1.5366118071
 C         -2.8200966300        0.8866342411        1.6660512980
 H         -2.3183127508        0.4530986908        2.5360019683
 H         -3.6258443300        1.5346803314        2.0174742675
 H         -3.3611041464        2.6468005017       -2.4476327322
 H         -4.9797545770        2.5114054823       -1.7470163133
 H         -4.1381569284        2.8832528117        0.4871254973
 H         -3.4507188571        4.1283124115       -0.5734896021
 O         -1.1168360074        3.3894585705       -0.5727768006
 C          0.2268031923        3.1612741899       -0.3333580297
 O          0.9936675331        3.9078831397       -0.9776417291
 H          1.0782945505       -0.3927150305        0.0898326606
 C          1.9689550610       -0.1701187208       -0.4737019688
 C          2.6380516714        1.0242149889       -0.2472725882
 C          3.7866998620        1.2968572685       -0.9799859474
 C          4.2445007722        0.3954113183       -1.9255258572
 C          3.5559792219       -0.7787391713       -2.1719101978
 C          2.4046884313       -1.0589171209       -1.4435907986
 N          1.6805248609       -2.2408326106       -1.6567464592
 S          0.0085431008       -2.2607755299       -1.5447569403
 O         -0.4133045889       -3.2588231196       -2.5077567407
 O         -0.5576714985       -0.9439776796       -1.7260646006
 C         -0.3569654506       -2.8820917099        0.0845646694
 C         -1.6608173309       -3.2814865693        0.3081796884
 C         -2.0147607319       -3.7626299293        1.5576499181
 C         -1.0608318027       -3.8371856798        2.5606319288
 C          0.2447308277       -3.4433365403        2.3175895897
 C          0.6055702787       -2.9621075004        1.0683615000
 H          1.6157614490       -2.6509140508        0.8606986007
 H          0.9867997171       -3.5023056007        3.0974083202
 H         -1.3367345335       -4.2050150198        3.5363552386
 H         -3.0306212422       -4.0721393989        1.7440778674
 H         -2.3687938103       -3.2113722689       -0.5028572821
 H          2.0021559812       -2.8108084006       -2.4248493190
 H          3.9000380821       -1.4713137214       -2.9249649476
 H          5.1376172727        0.6168657480       -2.4899218465
 H          4.3083419823        2.2292595882       -0.8208679770
 C          2.0976573911        1.9998689390        0.7661191615
 H          2.5337887017        2.9861649189        0.5389100819
 C          2.4866564899        1.6481336587        2.1955959217
 C          2.9892433191        0.2994955685        2.6040786619
 C          3.9314600796        1.4620726381        2.5547634827
 H          4.2905469591        1.8809485678        3.4825408530
 H          4.6505983102        1.4874972878        1.7499803532
 H          3.0777308893       -0.4594300515        1.8430196319
 H          2.6746321683       -0.0799812515        3.5636691317
 H          1.8689218997        2.1697256089        2.9191931513
 O         -0.0929565105        0.3954222599        1.9878801498
