  62
        -98.93507184
 C         -2.4709247715       -1.4284048765        0.3019723712
 C         -2.7421445188       -0.5712977371       -0.7899605483
 C         -3.5552437471        0.6262958402       -0.5009072223
 C         -3.9592479934        0.8743516814        0.7579747128
 C         -4.8064443421        1.9915054597        1.3296783241
 C         -5.0190530645        3.2883487165        0.5522210824
 C         -3.7577336886        4.1232043990        0.3349207188
 H         -3.4218936394        4.5091058784        1.3006649227
 H         -4.0200698062        4.9782432689       -0.2920997200
 C         -2.5794486531        3.3884332590       -0.3007195666
 H         -2.2152810475        2.6139138161        0.3787523085
 H         -1.7620906693        4.1050110659       -0.4241257935
 C         -2.8578799673        2.7623921356       -1.6664493494
 H         -1.8972267392        2.4332714214       -2.0732341036
 H         -3.2634798908        3.5188092750       -2.3412002477
 C         -3.8033726559        1.5471757792       -1.6606879325
 H         -3.6083381548        0.9648683557       -2.5658854511
 H         -4.8455246636        1.8558441322       -1.6874300076
 H         -5.7146699756        3.8915982539        1.1418364518
 H         -5.5049478669        3.0853792479       -0.3975601048
 H         -4.3622814266        2.2270056325        2.3018998957
 H         -5.7871305055        1.5488778826        1.5367921210
 O         -3.6616602737        0.0247760464        1.7839271341
 C         -2.9168404270       -1.1225174583        1.5899243648
 O         -2.7248739479       -1.7876638805        2.6271508172
 O         -2.3387983302       -0.7734336305       -1.9658008134
 C         -1.6410025116       -2.6988702319        0.1867867475
 C         -0.1805569657       -2.3550073690        0.3288080737
 C          0.6057292786       -2.9244205336        1.3223228596
 C          1.9302298585       -2.5497048614        1.4722813147
 C          2.4941461808       -1.5999123489        0.6392684597
 C          1.7144757410       -1.0231212397       -0.3548300339
 C          0.3921784512       -1.4065958278       -0.5087383735
 H         -0.2111025046       -0.9533926086       -1.2821331146
 N          2.2756927779       -0.0363874606       -1.1953946390
 S          2.7288065005        1.3855828666       -0.4130742165
 O          1.9374940676        1.6058988798        0.7768422906
 O          2.6752696021        2.4189364191       -1.4242079527
 C          4.4277702497        1.0881247828        0.0279612412
 C          5.3345628771        0.8680160246       -0.9905729546
 C          6.6594293809        0.6248914337       -0.6655555614
 C          7.0530312590        0.6083938591        0.6644669996
 C          6.1311045531        0.8350472120        1.6750238569
 C          4.8037192352        1.0776589091        1.3566932163
 H          4.0497755903        1.2531029722        2.1075463924
 H          6.4387697669        0.8223041245        2.7082967569
 H          8.0845721337        0.4179515584        0.9152991707
 H          7.3793599853        0.4487062623       -1.4483947433
 H          4.9864738520        0.8950433916       -2.0095957762
 H          1.6714181117        0.1936605971       -1.9730774415
 H          3.5228218367       -1.2992999676        0.7551417654
 H          2.5284015571       -2.9985206892        2.2504490665
 H          0.1657292081       -3.6482052525        1.9927284332
 H         -1.9260265895       -3.3056243312        1.0602829181
 C         -1.9625959033       -3.5119876237       -1.0602090323
 C         -0.9773181102       -3.7817435010       -2.1544711629
 C         -1.3748423584       -4.8830184604       -1.2215322440
 H         -2.0054790266       -5.6774679098       -1.5904378922
 H         -0.6497650858       -5.1979469308       -0.4860870180
 H         -1.3503500613       -3.7960895950       -3.1673020061
 H          0.0167260713       -3.3729756069       -2.0637624309
 H         -2.9954194392       -3.3881771053       -1.3684459130
