  62
        -98.93536271
 C         -1.9578854487       -0.5725377303        0.2000750044
 C         -2.6781513124        0.6493564374        0.2560815862
 C         -4.0586509173        0.6250318673       -0.2426045033
 C         -4.5646075186       -0.5206600104       -0.7323914312
 C         -5.9290213636       -0.7218456949       -1.3371495156
 C         -7.1307166859       -0.5352107942       -0.3912735302
 C         -7.7339336520        0.8747764031       -0.4061191059
 H         -7.4929165682        1.3501288457       -1.3577329380
 H         -8.8218560954        0.7918350282       -0.3639005593
 C         -7.3115651963        1.7930543717        0.7446642838
 H         -7.6012886062        2.8130114770        0.4826350332
 H         -7.8653373902        1.5154391458        1.6445025670
 C         -5.8246402604        1.7772470952        1.0997917567
 H         -5.5867587405        0.8609813747        1.6454767986
 H         -5.6288894744        2.6036472507        1.7861758982
 C         -4.8732619724        1.8785570942       -0.1083334446
 H         -5.4315647545        2.0728985404       -1.0230629455
 H         -4.1647640482        2.6956376871        0.0426619420
 H         -7.9000051684       -1.2372733242       -0.7167205661
 H         -6.8441431990       -0.8171832659        0.6215021503
 H         -6.0341473955       -0.0503249596       -2.1923937885
 H         -5.9297234105       -1.7461345735       -1.7154507759
 O         -3.8412664600       -1.6700060361       -0.7753798876
 C         -2.5352899854       -1.7354253666       -0.3109265095
 O         -2.0296754199       -2.8690304738       -0.4234422589
 O         -2.1843954927        1.7193363043        0.7048645262
 C         -0.5362160557       -0.5441462667        0.7323909953
 C          0.4855863546       -0.3940874921       -0.3697025007
 C          0.5593470516       -1.2965512296       -1.4262496080
 C          1.5141341143       -1.1415869113       -2.4141828703
 C          2.4293038760       -0.1045635235       -2.3549127182
 C          2.3710684025        0.7953411586       -1.2986617604
 C          1.3945067470        0.6528806084       -0.3218771914
 H          1.3574122111        1.3689610849        0.4850335038
 N          3.3010005992        1.8491378126       -1.1882794006
 S          4.2712649704        1.8743161242        0.1779369263
 O          3.4599880751        2.0671575180        1.3512505118
 O          5.2736131573        2.8810516848       -0.0883604301
 C          5.0262327282        0.2574942344        0.2019461793
 C          6.2756778282        0.0976245484       -0.3650379448
 C          6.8315836980       -1.1703266318       -0.4180660261
 C          6.1256196093       -2.2539383777        0.0823125698
 C          4.8708595889       -2.0773123404        0.6449185916
 C          4.3119948503       -0.8105516781        0.7083753565
 H          3.3395626929       -0.6410923045        1.1409914656
 H          4.3194476753       -2.9194836657        1.0311124728
 H          6.5548115971       -3.2423277861        0.0347269105
 H          7.8086044208       -1.3100281435       -0.8519271312
 H          6.7885073917        0.9686318766       -0.7400590151
 H          3.8777447618        1.9671288259       -2.0100144521
 H          3.1803961223        0.0098091520       -3.1220166010
 H          1.5541571999       -1.8435072858       -3.2331094259
 H         -0.1424905784       -2.1150617505       -1.4668676296
 H         -0.4829766615        0.3611359438        1.3530807801
 C         -0.1834343663       -1.7365753131        1.6013497434
 C          0.8943160991       -1.5864474737        2.6314459374
 C         -0.5377899929       -1.7134718976        3.0561878597
 H         -0.8612270020       -2.6323131716        3.5215245434
 H         -1.0364411861       -0.8331540691        3.4355975223
 H          1.5572399449       -2.4188958544        2.8112505869
 H          1.3640557577       -0.6180435670        2.7308646631
 H         -0.2634351009       -2.6837694770        1.0842201810
