  62
        -98.93507076
 C          2.4231065893        1.3963710330       -0.0610210606
 C          3.2744237742        0.8881775836        0.9527456534
 C          4.2571509933       -0.1349506201        0.5563141481
 C          4.2901952928       -0.5397527111       -0.7247222683
 C          5.1708227771       -1.5937225254       -1.3375331095
 C          4.4752486367       -2.9656332160       -1.3233134595
 C          4.6892171255       -3.7834036590       -0.0503665336
 H          4.0514126714       -4.6675769552       -0.1213555593
 H          5.7249252826       -4.1277193335       -0.0149732712
 C          4.3710264563       -3.0522896153        1.2563746674
 H          3.4418072890       -2.4894322851        1.1459095458
 H          4.1999945602       -3.8051917497        2.0282954457
 C          5.4992183589       -2.1161670075        1.7145457097
 H          5.7525287309       -2.3368069933        2.7535637243
 H          6.3943760582       -2.3213458427        1.1279766042
 C          5.1698197012       -0.6188628064        1.6502499426
 H          6.1046372055       -0.0503532088        1.5981386124
 H          4.6736498224       -0.3157896925        2.5776474061
 H          3.4053887737       -2.8026913021       -1.4796603575
 H          4.8420091191       -3.5529571545       -2.1676468602
 H          6.1315019983       -1.6350612522       -0.8330163124
 H          5.3314088250       -1.2965713705       -2.3760397152
 O          3.4423288306       -0.0427565105       -1.6653280662
 C          2.4959608803        0.9278729608       -1.3726969755
 O          1.8106644819        1.2643279975       -2.3573246111
 O          3.2201733473        1.2837272565        2.1485179361
 C          1.4471288775        2.4853067568        0.3522436119
 C          0.0802600222        1.9234879350        0.6482128313
 C         -0.5390900502        2.1556437363        1.8706209137
 C         -1.7931406916        1.6326112915        2.1347955524
 C         -2.4568190648        0.8752502530        1.1862248897
 C         -1.8425823086        0.6291159909       -0.0349566136
 C         -0.5830410586        1.1502156500       -0.2950273907
 H         -0.1085029569        0.9561429750       -1.2459309071
 N         -2.5105540001       -0.1231692131       -1.0163010404
 S         -3.2108296726       -1.5802034695       -0.5674837673
 O         -2.5139848062       -2.1836319233        0.5455880404
 O         -3.2785546172       -2.3611274061       -1.7832783523
 C         -4.8610401694       -1.1185120174       -0.0824593746
 C         -5.3583237447       -1.5170215303        1.1428027535
 C         -6.6485587610       -1.1502928124        1.4935699417
 C         -7.4142670873       -0.3964806525        0.6174789396
 C         -6.9010009114       -0.0069683731       -0.6108604838
 C         -5.6127702065       -0.3713132013       -0.9681842503
 H         -5.1772512215       -0.0905895344       -1.9126349931
 H         -7.4990613759        0.5794802979       -1.2896235550
 H         -8.4169927323       -0.1106735139        0.8934346484
 H         -7.0493553912       -1.4525553212        2.4477294080
 H         -4.7237364269       -2.0962511234        1.7946165733
 H         -1.9815852248       -0.2246060202       -1.8708935535
 H         -3.4338958614        0.4666736073        1.3857528631
 H         -2.2612236760        1.8188878461        3.0892337961
 H         -0.0237627785        2.7373197449        2.6208490317
 H          1.8552523256        2.8699620316        1.3001207009
 C          1.4149448684        3.6502460347       -0.6296219969
 C          0.2317812357        4.0017246805       -1.4761237313
 C          0.6012491650        4.8706688449       -0.3140675100
 H          1.0289248207        5.8431058490       -0.5047876782
 H         -0.0325763515        4.8277436775        0.5588884487
 H          0.4250988292        4.3571934192       -2.4768478548
 H         -0.6562078514        3.3951650587       -1.3963758709
 H          2.3881886856        3.8193335119       -1.0801904590
