  62
        -98.93831872
 C         -2.3670445801       -1.2274514305        0.1820560792
 C         -2.4392259802        0.0500831697       -0.4175955104
 C         -3.5036762702        0.9544619695        0.0669291200
 C         -4.3135035401        0.5361223391        1.0570658700
 C         -5.4803880301        1.2563803388        1.6786723003
 C         -6.7282084302        1.2458560691        0.7809794404
 C         -6.4626130503        1.5484734496       -0.6912584195
 H         -5.7488495003        0.8218334598       -1.0834773598
 H         -7.4009601704        1.4068506097       -1.2339115895
 C         -5.9622375004        2.9607448697       -0.9851113890
 H         -5.9046834805        3.0650748201       -2.0716385190
 H         -6.6954745704        3.6838247496       -0.6210733287
 C         -4.5941185304        3.3216532896       -0.4018628590
 H         -4.2639115905        4.2425822998       -0.8916225687
 H         -4.6653839703        3.5469035992        0.6588284811
 C         -3.5020349903        2.2849047997       -0.6472099995
 H         -2.5303937703        2.7399475897       -0.4169167494
 H         -3.4626291304        2.0535087901       -1.7179554996
 H         -7.1777852701        0.2517154290        0.8402023101
 H         -7.4456353902        1.9650390089        1.1795296207
 H         -5.1975619201        2.2720479387        1.9385899907
 H         -5.7151465700        0.7289585485        2.6058482302
 O         -4.1862933600       -0.6966023311        1.6264054295
 C         -3.2265838800       -1.5982162009        1.2180054391
 O         -3.2356199699       -2.6798051212        1.8393004087
 O         -1.6657365003        0.4362952300       -1.3348695903
 C         -1.3188839401       -2.2457081203       -0.2385987413
 C          0.0367734999       -1.7366336004        0.1863794588
 C          0.4256989500       -1.8822865709        1.5155254587
 C          1.6375966700       -1.3838584010        1.9534970088
 C          2.4843795699       -0.7235830806        1.0791419089
 C          2.0960420598       -0.5549189802       -0.2423626110
 C          0.8850573798       -1.0736610001       -0.6851330710
 H          0.5904698897       -0.9254725997       -1.7116407210
 N          2.9427388997        0.1127627802       -1.1408828208
 S          3.7550871397        1.4908180600       -0.6421176004
 O          3.0187381997        2.2234388097        0.3621747499
 O          4.0636305196        2.2057289005       -1.8615072202
 C          5.2684534298        0.8531752999        0.0496457593
 C          5.6905574399        1.2780845495        1.2940988494
 C          6.8762631399        0.7760545193        1.8080016391
 C          7.6159546999       -0.1363430604        1.0716062987
 C          7.1803017598       -0.5503898100       -0.1783621714
 C          5.9967458898       -0.0514091398       -0.6981006411
 H          5.6252655897       -0.3469994595       -1.6649282012
 H          7.7579232798       -1.2603353397       -0.7481338917
 H          8.5369758400       -0.5271948305        1.4743800985
 H          7.2163363300        1.0975083590        2.7793760092
 H          5.0794050099        1.9836336392        1.8345307497
 H          2.5402565796        0.2398937405       -2.0582348907
 H          3.4259614399       -0.3235956807        1.4176893190
 H          1.9283433301       -1.5082574113        2.9856241087
 H         -0.2441870799       -2.3822166811        2.2017130086
 H         -1.5358341500       -3.1524018905        0.3417916484
 C         -1.4167671702       -2.5774378698       -1.7129341114
 C         -0.7137756202       -3.7918183296       -2.2384099319
 C         -2.2090184702       -3.7741125197       -2.1417679317
 H         -2.7852017503       -3.7100879594       -3.0527237717
 H         -2.6797784001       -4.3644365000       -1.3691667519
 H         -0.2615727203       -3.7440180692       -3.2172368419
 H         -0.1672665401       -4.3946860498       -1.5291711121
 H         -1.4640898803       -1.7019003296       -2.3484408911
