  62
        -98.93919205
 C          0.8209623939        1.3431502433        0.7156039781
 C          1.1272146014        0.6040715632       -0.4509905254
 C          2.1461969258       -0.4556885603       -0.3022109402
 C          2.5743642063       -0.7927544659        0.9272211608
 C          3.5499264570       -1.8554722930        1.3899619915
 C          4.4704048778       -2.5519988536        0.3910441434
 C          5.5456478558       -1.6514491478       -0.2191308901
 H          6.2845425232       -1.4252390313        0.5538809149
 H          6.0527609088       -2.2096219249       -1.0088945616
 C          5.0564004450       -0.3202333137       -0.7854110553
 H          4.6101406290        0.2753915902        0.0137548801
 H          5.9300879122        0.2304140997       -1.1445428287
 C          4.0653346687       -0.4233042148       -1.9429135745
 H          4.5014120168       -1.0205583930       -2.7458453779
 H          3.9029764147        0.5869746007       -2.3285078711
 C          2.6925749036       -1.0162765540       -1.5833042026
 H          1.9810058035       -0.7367313062       -2.3652502773
 H          2.7375271065       -2.1002761474       -1.5506681965
 H          4.9811857084       -3.3473552678        0.9406992008
 H          3.8866180098       -3.0341585312       -0.3873993477
 H          4.1593215977       -1.3835143669        2.1675906733
 H          2.9457351983       -2.6154208202        1.8986461701
 O          2.0835525497       -0.1828377814        2.0489817384
 C          1.2624737264        0.9275588277        1.9718690277
 O          0.9877124246        1.4381474174        3.0773102348
 H         -1.8699747522        0.7225947061        1.2106887208
 C         -2.1443112164        1.2816982301        0.3270449361
 C         -1.3128324237        2.3003827258       -0.1225356696
 C         -1.6851481017        3.0142397224       -1.2538705473
 C         -2.8625848412        2.7104078480       -1.9142381487
 C         -3.6871487962        1.6953564325       -1.4657228314
 C         -3.3217454813        0.9747281701       -0.3339701045
 N         -4.1438976366       -0.0500017434        0.1601754166
 S         -3.4770006566       -1.3957355894        0.8765881641
 O         -4.5322958976       -2.3866427190        0.8170863772
 O         -2.9954082104       -1.0821410010        2.1993047732
 C         -2.1321168206       -1.9308235327       -0.1651485928
 C         -0.9570595194       -2.3512266730        0.4214786578
 C          0.0441822584       -2.8748810473       -0.3799063772
 C         -0.1410469219       -2.9542960527       -1.7506428655
 C         -1.3190843647       -2.5091594238       -2.3280108344
 C         -2.3298173142       -2.0012328181       -1.5296266730
 H         -3.2624583941       -1.6660189842       -1.9528788040
 H         -1.4542307567       -2.5607899885       -3.3962346603
 H          0.6373605595       -3.3645003622       -2.3740253123
 H          0.9614424995       -3.2174888766        0.0714975317
 H         -0.8471048683       -2.2583097592        1.4913538625
 H         -4.9426450542       -0.2789695345       -0.4125449309
 H         -4.6059458988        1.4609204732       -1.9811013624
 H         -3.1398677425        3.2692381737       -2.7950223113
 H         -1.0447548338        3.7945405214       -1.6303579924
 C         -0.0632707341        2.5758297048        0.6753820589
 H         -0.3723070255        2.7354851695        1.7222917116
 C          0.6659161048        3.8394155161        0.2404276552
 C          2.1319674720        4.0105640812        0.5025439487
 C          1.6348841547        3.8585140266       -0.9019450111
 H          1.6499543339        4.7264193898       -1.5449222762
 H          1.8196602386        2.9296228639       -1.4167811606
 H          2.4862346053        4.9781564707        0.8251025753
 H          2.6581419522        3.1815597638        0.9540576451
 H          0.0510217472        4.7243884381        0.3732482640
 O          0.6021726846        0.8138337903       -1.5730250039
