  62
        -98.94608047
 C         -1.0051739011       -1.6220877251        0.6286332503
 C         -1.7903791832       -1.5199229586       -0.5446901886
 C         -2.8966736580       -0.5534918441       -0.4908866567
 C         -3.0831719301        0.1756094546        0.6244030038
 C         -4.1728133949        1.1914099991        0.8093869156
 C         -3.7191959525        2.5974556815        0.3954111855
 C         -3.0235231246        2.6477989054       -0.9642382355
 H         -2.7662453501        3.6902906167       -1.1603993455
 H         -2.0848513717        2.0915820001       -0.9065524170
 C         -3.8670454435        2.1063946216       -2.1269355145
 H         -3.7761977881        2.7905068023       -2.9731163544
 H         -4.9195690530        2.0822419662       -1.8418279230
 C         -3.4485483673        0.7232301438       -2.6285945255
 H         -2.3729457775        0.7121126193       -2.8229071570
 H         -3.9546231777        0.5396276116       -3.5802422349
 C         -3.7818654201       -0.4519581981       -1.7009477555
 H         -4.8331354600       -0.4046204835       -1.4090330440
 H         -3.6232781663       -1.3758388672       -2.2649080660
 H         -4.5931428257        3.2512397871        0.3839195969
 H         -3.0237437933        2.9681809747        1.1495935846
 H         -5.0381875342        0.8897903649        0.2220458467
 H         -4.4511585135        1.2046799573        1.8646663360
 O         -2.2745009181        0.0861535282        1.7120459726
 C         -1.2188824536       -0.8106465965        1.7419846909
 O         -0.5554531222       -0.7896533936        2.7994873700
 H          1.2964919618       -0.2833868435        0.3154223876
 C          1.6665743944       -1.0080899814       -0.3947219932
 C          1.1622286509       -2.3027803739       -0.3650767329
 C          1.6430913743       -3.2254259212       -1.2838927939
 C          2.6005119011       -2.8514355261       -2.2113565451
 C          3.1173072647       -1.5694999635       -2.2208585854
 C          2.6494500914       -0.6400019362       -1.2975914744
 N          3.1537433049        0.6685505963       -1.2723226747
 S          3.4095029830        1.4510840471        0.1874426652
 O          4.4874414780        2.3776059026       -0.0903486260
 O          3.6377251191        0.5134045179        1.2604488346
 C          1.9256386786        2.3948024796        0.4614962076
 C          1.0895590516        2.1022323751        1.5195958486
 C         -0.0326065221        2.8903292894        1.7244775605
 C         -0.2937363886        3.9551652384        0.8767890312
 C          0.5531663686        4.2332692030       -0.1857421499
 C          1.6734606622        3.4477577486       -0.3971105617
 H          2.3661750501        3.6393154024       -1.1995974026
 H          0.3440513735        5.0606221922       -0.8443841393
 H         -1.1594665214        4.5755607640        1.0475660726
 H         -0.6924539998        2.6563267758        2.5456225813
 H          1.3149117766        1.2685270360        2.1681413181
 H          3.9047964431        0.8449245803       -1.9236580857
 H          3.8756231523       -1.2852406195       -2.9346474763
 H          2.9590950137       -3.5739555441       -2.9288600558
 H          1.2654635493       -4.2344548031       -1.2802058937
 C          0.1321428240       -2.6255793994        0.6901304484
 H          0.6108877847       -2.4848822874        1.6710658878
 C         -0.4069265490       -4.0383298821        0.6098535487
 C          0.3565236375       -5.1699839385        1.2271600372
 C         -0.9150425341       -4.6907746750        1.8588857691
 H         -1.7925934810       -5.3163719894        1.7941612601
 H         -0.8500476356       -4.1240420250        2.7767151992
 H          1.2874770470       -4.9336884040        1.7205233060
 H          0.3510995816       -6.1288232883        0.7311905469
 H         -0.9510381594       -4.2263264545       -0.3082842207
 O         -1.5907717412       -2.2096111573       -1.5782391391
