  62
        -98.93851461
 C         -1.5622491405       -1.2418255897        0.2300848108
 C         -2.0554749203       -0.3045802301        1.1699834213
 C         -3.4700283403        0.0865260901        1.0373513517
 C         -4.2073081205       -0.4614222494        0.0557449315
 C         -5.6471925605       -0.1853764691       -0.2803110181
 C         -5.7593294805        0.9077335214       -1.3561949477
 C         -5.7896026903        2.3378126212       -0.8188254071
 H         -5.7399916903        3.0101036715       -1.6784469168
 H         -6.7447784602        2.5139225911       -0.3196978769
 C         -4.6589750301        2.6946950106        0.1497348529
 H         -3.7136442002        2.2954358607       -0.2234325674
 H         -4.5627293200        3.7821871906        0.1676297833
 C         -4.9089759799        2.1942847301        1.5803915527
 H         -4.7856268297        3.0238942898        2.2798907930
 H         -5.9447121600        1.8671168402        1.6689978327
 C         -3.9706518500        1.0757866298        2.0546673421
 H         -4.4555684999        0.5247477795        2.8678171220
 H         -3.0640149699        1.5192981295        2.4789986022
 H         -4.9169063606        0.7902540415       -2.0427119178
 H         -6.6737830306        0.7427142417       -1.9295398876
 H         -6.0521068707       -1.1146361989       -0.6866022584
 H         -6.2078824303        0.0801859806        0.6108055421
 O         -3.6922616607       -1.3543338691       -0.8319110289
 C         -2.3690901407       -1.7613554293       -0.7820818493
 O         -2.0583304410       -2.5768321289       -1.6695873096
 O         -1.3435848501        0.1832609095        2.0899815414
 C         -0.1046803306       -1.6574682800        0.3361953605
 C          0.6775229693       -1.0589191496       -0.8066697694
 C          0.9247371591       -1.7422990491       -1.9917993697
 C          1.6368910990       -1.1363829188       -3.0111359796
 C          2.1501383092        0.1393376011       -2.8568948492
 C          1.9116769894        0.8289555806       -1.6743056488
 C          1.1631924295        0.2349075503       -0.6687882990
 H          0.9544259697        0.7940168700        0.2317712013
 N          2.4508063996        2.1081075305       -1.4580624284
 S          3.1273180199        2.4135411198        0.0443321916
 O          2.1092217300        2.8184521095        0.9796237019
 O          4.1637051699        3.3909856598       -0.2157781682
 C          3.8590617398        0.8634952495        0.5448493009
 C          3.3983920998        0.2122106991        1.6704381407
 C          3.9610921598       -1.0064884111        2.0164090101
 C          4.9651433096       -1.5523054109        1.2316411297
 C          5.4215616995       -0.8822298305        0.1069187799
 C          4.8657739096        0.3376999397       -0.2413039295
 H          5.2041682495        0.8898419100       -1.1028618593
 H          6.2046835894       -1.3079533503       -0.4992368104
 H          5.3931681695       -2.5053757510        1.4997740993
 H          3.6091536098       -1.5255709014        2.8941864099
 H          2.6074235600        0.6630916690        2.2492430110
 H          3.0425111095        2.4441614407       -2.2042551284
 H          2.7250490791        0.6018698013       -3.6446727691
 H          1.8099858788       -1.6716283785       -3.9322483298
 H          0.5332776689       -2.7372003390       -2.1219441901
 H          0.2565933796       -1.1907723504        1.2628976006
 C          0.0680987493       -3.1581921300        0.4505931998
 C          1.4066343193       -3.6989950703        0.8535463794
 C          0.2516895994       -3.7702772306        1.8053095895
 H         -0.1993902207       -4.7317259106        2.0003332292
 H          0.2460364696       -3.1062529809        2.6573830498
 H          1.7516640391       -4.6132769502        0.3963108990
 H          2.1879774994       -2.9808168805        1.0527301496
 H         -0.5116462409       -3.7169099497       -0.2731659403
