  62
        -98.94003357
 C          1.6978950144        1.1791126952       -0.2316991423
 C          3.0294647260        1.2945947199        0.2283285533
 C          3.9761322682        0.2440817240       -0.1944128810
 C          3.5300046192       -0.7454093724       -0.9907179856
 C          4.2915391304       -1.9371361039       -1.5059657572
 C          4.4853540625       -3.0223764328       -0.4332038086
 C          4.8682222734       -2.5007422925        0.9496146015
 H          4.1108519229       -1.7909567607        1.2875760006
 H          4.8497805027       -3.3474091858        1.6409304756
 C          6.2480921620       -1.8539422165        1.0426573616
 H          7.0068886542       -2.5884175706        0.7630522439
 H          6.4132110179       -1.5889529266        2.0901984135
 C          6.4574574751       -0.5976026944        0.1954129039
 H          6.5970794727       -0.8522598489       -0.8516702220
 H          7.3903342070       -0.1328801704        0.5281868718
 C          5.3702459887        0.4628827381        0.3421974015
 H          5.2473699113        0.7038216101        1.4042758168
 H          5.7248530084        1.3905201458       -0.1236737360
 H          5.2446838753       -3.7231675733       -0.7838588357
 H          3.5437815097       -3.5673022949       -0.3321708159
 H          5.2454624738       -1.6199097766       -1.9165782543
 H          3.7015658281       -2.3575953399       -2.3232895283
 O          2.2357728763       -0.8130266774       -1.4143309530
 C          1.2914909805        0.1290025793       -1.0520786014
 O          0.1548692778       -0.0783746423       -1.5171752702
 O          3.4176491020        2.2325585664        0.9763714893
 C          0.6789327929        2.2216239324        0.1935894657
 C         -0.3989885259        1.5587496834        1.0151049689
 C         -0.0316228214        0.9339972330        2.2057808263
 C         -0.9724066454        0.3045541554        2.9960768322
 C         -2.3018440994        0.2759258399        2.6100941357
 C         -2.6794826437        0.8947316625        1.4256923579
 C         -1.7324535948        1.5391534858        0.6388395634
 H         -2.0567635471        2.0021682051       -0.2775433755
 N         -4.0282215235        0.9002179470        1.0187677470
 S         -4.4364593166        0.2384623146       -0.4658822324
 O         -3.8015602934        0.9766721642       -1.5248873053
 O         -5.8839639318        0.2287874410       -0.4727361028
 C         -3.8349132173       -1.4386173528       -0.3782297973
 C         -2.5033848148       -1.7010038062       -0.6287595494
 C         -2.0430285228       -3.0000166406       -0.4718616480
 C         -2.9096814948       -4.0042046079       -0.0703578961
 C         -4.2452832382       -3.7219517656        0.1753666544
 C         -4.7126745912       -2.4268985816        0.0259973023
 H         -5.7429011967       -2.1616972587        0.2013395677
 H         -4.9193672019       -4.5046619629        0.4841756266
 H         -2.5416352684       -5.0111061860        0.0495352289
 H         -1.0028147742       -3.2091894028       -0.6669443703
 H         -1.8408237781       -0.9109235845       -0.9465828836
 H         -4.6605752165        0.5407417407        1.7209174119
 H         -3.0411314946       -0.2171982215        3.2231080105
 H         -0.6709333231       -0.1715206871        3.9167468257
 H          1.0085297243        0.9536593084        2.5015101482
 H          1.2285436161        2.9137370027        0.8484797743
 C          0.1562884444        2.9943763912       -0.9975889190
 C         -0.4163395503        4.3650923545       -0.8007897782
 C          0.9119445370        4.1970165580       -1.4738917688
 H          0.9796125061        4.3756552545       -2.5366083217
 H          1.8014264493        4.4739486522       -0.9267744621
 H         -1.2650698898        4.6582071491       -1.4002469848
 H         -0.4294189238        4.7606818428        0.2036407018
 H         -0.2948705266        2.3595772964       -1.7522755365
