  62
        -98.93430065
 C          1.7260226962       -1.0464266284       -0.2144023792
 C          2.1771033606        0.2842119228       -0.3883026970
 C          3.6336933657        0.4609897996       -0.5548328284
 C          4.4380050704       -0.6142082309       -0.5780445686
 C          5.9326530240       -0.6685914188       -0.7730607860
 C          6.7834337982        0.3691392645       -0.0279555486
 C          6.2325266610        0.8014440756        1.3387285675
 H          5.4227087631        0.1367393267        1.6444278243
 H          7.0246562227        0.7133363578        2.0845835765
 C          5.7357133888        2.2491885924        1.3515737096
 H          6.4531954412        2.8705870479        0.8111628135
 H          5.7106424170        2.6031441684        2.3851024977
 C          4.3419906620        2.4704028414        0.7647026913
 H          4.1595235843        3.5472020204        0.7267016929
 H          3.5875854107        2.0439177159        1.4319350871
 C          4.1120087241        1.8819850966       -0.6370454865
 H          3.3022895058        2.4453592219       -1.1092105938
 H          5.0033865365        1.9725630946       -1.2531084890
 H          7.7739471465       -0.0702186027        0.1017897269
 H          6.9119654400        1.2518465227       -0.6528518866
 H          6.2227329740       -1.6738343610       -0.4579585027
 H          6.1381818933       -0.5959388273       -1.8449948085
 O          3.9536296930       -1.8828385809       -0.4568925201
 C          2.6049192948       -2.1304757945       -0.2737014175
 O          2.3151542137       -3.3402837411       -0.1881950118
 O          1.4191186712        1.2872903738       -0.4157573296
 C          0.2586300710       -1.3814558222       -0.0085665343
 C         -0.6035509924       -0.5997060687       -0.9678737155
 C         -0.4753231796       -0.8442181752       -2.3331107084
 C         -1.2430450037       -0.1534760825       -3.2498351307
 C         -2.1740551543        0.7784174204       -2.8244040062
 C         -2.3089449270        1.0298470024       -1.4649773555
 C         -1.5260334060        0.3436874784       -0.5460504538
 H         -1.6168133923        0.5948505621        0.4966308273
 N         -3.2424300019        1.9657639099       -1.0001564840
 S         -4.0275587897        1.7218265826        0.4497323129
 O         -5.2640487072        2.4636512706        0.3175223255
 O         -3.1902734071        2.0997899997        1.5598272000
 C         -4.3744281214       -0.0284489775        0.5177052070
 C         -5.0489255343       -0.6107191549       -0.5372397295
 C         -5.3153615900       -1.9694400402       -0.4947799245
 C         -4.9083904860       -2.7198995430        0.5977402794
 C         -4.2407595803       -2.1195197235        1.6535935983
 C         -3.9691997534       -0.7609983805        1.6144026156
 H         -3.4472549964       -0.2548825531        2.4110552453
 H         -3.9270867433       -2.7041025286        2.5040309196
 H         -5.1133526369       -3.7783677170        0.6280924161
 H         -5.8369310288       -2.4393017772       -1.3128989864
 H         -5.3600249971       -0.0007187091       -1.3694240273
 H         -3.8434513926        2.3671191064       -1.7038013366
 H         -2.7778866585        1.3177934929       -3.5381612645
 H         -1.1238624540       -0.3466388902       -4.3053238607
 H          0.2486288145       -1.5762812862       -2.6651172174
 H          0.1737115823       -2.4477144859       -0.2763297761
 C         -0.2095622173       -1.2591004384        1.4338246207
 C          0.7258026849       -1.4963930653        2.5803549097
 C          0.2001778188       -0.1190427432        2.3147570804
 H         -0.5320512722        0.2991604896        2.9909516156
 H          0.8677491082        0.6188740895        1.8983010503
 H          0.3566040096       -2.0329312741        3.4412857691
 H          1.7607815950       -1.7030607293        2.3487188419
 H         -1.2237026317       -1.6275319201        1.5565944331
