  62
        -98.94175682
 C         -2.1940232355       -1.2643260196        0.3027763421
 C         -1.7983239863       -0.3225247676       -0.6793520099
 C         -2.6093114595        0.9057345547       -0.7500771056
 C         -3.6351077083        1.0760276476        0.1026378332
 C         -4.5230915361        2.2851484716        0.1520311855
 C         -3.9858472761        3.3359222776        1.1332689597
 C         -2.5042527255        3.6585279368        0.9392527447
 H         -2.2417470338        4.4346325428        1.6616555763
 H         -1.9116849624        2.7753039923        1.1905552508
 C         -2.1378465260        4.1298220148       -0.4750628047
 H         -3.0359392000        4.4567507980       -1.0002638892
 H         -1.4763664698        4.9950245972       -0.3941351952
 C         -1.4042244282        3.0868460390       -1.3201856887
 H         -1.0007170260        3.5914866792       -2.2020370831
 H         -0.5572921395        2.6942328073       -0.7521933290
 C         -2.2513442841        1.9066123703       -1.8132916763
 H         -1.6618087141        1.3565237416       -2.5526766375
 H         -3.1510712701        2.2824872304       -2.3047889516
 H         -4.5758578303        4.2472979840        1.0211760309
 H         -4.1258585038        2.9644803959        2.1512507085
 H         -5.5143849943        1.9683998083        0.4810288953
 H         -4.6022055402        2.7120464842       -0.8459494022
 O         -3.9556494421        0.1700038647        1.0619108696
 C         -3.2396632424       -1.0094907974        1.1936445284
 O         -3.6198470991       -1.7353019983        2.1342919624
 O         -0.8287976117       -0.4839424106       -1.4617973454
 C         -1.4708612694       -2.5886615472        0.4767780638
 C          0.0260555280       -2.3955832588        0.4241489334
 C          0.8750806256       -3.1587999324       -0.3665520026
 C          2.2431777863       -2.9482600767       -0.3356056855
 C          2.7938517148       -1.9678094478        0.4676081695
 C          1.9508331236       -1.1810100447        1.2431453271
 C          0.5842883498       -1.4106539890        1.2304443988
 H         -0.0677378009       -0.8018504366        1.8460325559
 N          2.4934576719       -0.1521320712        2.0294018560
 S          3.7421484258        0.7635833515        1.3955901292
 O          4.9980300036        0.1004099088        1.6497308845
 O          3.5933953122        2.0685210646        2.0036754650
 C          3.4695894264        0.8606907840       -0.3656340099
 C          4.5155361784        0.5896986118       -1.2248756424
 C          4.2978099124        0.6662304410       -2.5909743644
 C          3.0421438505        1.0036575629       -3.0717600955
 C          2.0025528772        1.2757998447       -2.1962952981
 C          2.2178655919        1.2092707378       -0.8302233270
 H          1.4204772497        1.4071618990       -0.1313100911
 H          1.0188134134        1.5168406750       -2.5640646983
 H          2.8686640500        1.0521076202       -4.1351614817
 H          5.1044233920        0.4558361618       -3.2747392708
 H          5.4711304132        0.3170670532       -0.8068129122
 H          1.8061138879        0.4285140083        2.4859282980
 H          3.8576711390       -1.7972876289        0.5076169987
 H          2.8902671028       -3.5541647339       -0.9510067841
 H          0.4679284589       -3.9115844051       -1.0204299846
 H         -1.7229424182       -2.9151386716        1.5000864727
 C         -1.9664927455       -3.6837432867       -0.4583756545
 C         -3.3287921036       -3.6221117765       -1.0807632525
 C         -2.1080523538       -3.4618179129       -1.9333826524
 H         -1.8426095399       -4.2671672271       -2.6024554727
 H         -1.8691642433       -2.4807797911       -2.3115853629
 H         -3.8960921328       -4.5378551760       -1.1561366823
 H         -3.9361811646       -2.7508619780       -0.8818657125
 H         -1.6353206253       -4.6677546801       -0.1413753341
