  62
        -98.94048398
 C          1.8023246534        0.8189784629       -0.3901029588
 C          3.1299340111        1.3061677607       -0.4966188458
 C          4.1267944393        0.6744750575        0.3776950485
 C          3.7305356171       -0.2733447032        1.2462841525
 C          4.6452036128       -1.0379424836        2.1575919218
 C          5.1467735301       -2.3257112751        1.4890372134
 C          5.6971015333       -2.1161691765        0.0782448429
 H          6.0483205781       -3.0857352293       -0.2813108584
 H          4.8826797663       -1.8057205792       -0.5803643779
 C          6.8383136440       -1.0935087536       -0.0127190271
 H          7.2682903068       -0.9291384716        0.9760266298
 H          7.6280976489       -1.5049150718       -0.6448429361
 C          6.4373438301        0.2521223536       -0.6202752548
 H          5.9245634397        0.0868969577       -1.5713821161
 H          7.3503546665        0.8136856939       -0.8353766846
 C          5.5496612153        1.1425702711        0.2583070551
 H          6.0030344662        1.2539231024        1.2455687585
 H          5.5015573788        2.1299311346       -0.2106423181
 H          5.9208681846       -2.7636366802        2.1217928143
 H          4.3157196999       -3.0323644607        1.4311053181
 H          5.4881579616       -0.4061165582        2.4311089423
 H          4.0912465771       -1.2993086963        3.0608739294
 O          2.4405709960       -0.6748065485        1.3615576689
 C          1.4418427673       -0.1459144049        0.5517408092
 O          0.3119215131       -0.6120328636        0.7802121806
 H         -1.9121875572        0.8208096438       -1.7303898408
 C         -1.7541609201        1.4266546972       -0.8517296448
 C         -0.4726645886        1.8161600851       -0.4953214254
 C         -0.3119266948        2.5882341164        0.6531153612
 C         -1.3959312684        2.9346528413        1.4351185208
 C         -2.6735924216        2.5369742873        1.0797570661
 C         -2.8479848149        1.7820212116       -0.0702909761
 N         -4.1537761204        1.3942948877       -0.4415641935
 S         -4.9525822495        0.2756681892        0.5154781430
 O         -6.3121476812        0.2393215716        0.0249896753
 O         -4.7804091156        0.6361021768        1.8988009207
 C         -4.1621700024       -1.2856914489        0.1649224330
 C         -2.8638608971       -1.4872755900        0.5879211073
 C         -2.2337490085       -2.6785250411        0.2645723845
 C         -2.9071417186       -3.6436243749       -0.4676325609
 C         -4.2130819871       -3.4267699349       -0.8821760572
 C         -4.8465437944       -2.2351990139       -0.5695938910
 H         -5.8582697160       -2.0211618476       -0.8744765343
 H         -4.7354579691       -4.1795840378       -1.4505084682
 H         -2.4101294794       -4.5680676619       -0.7172342969
 H         -1.2129016974       -2.8218965074        0.5811689932
 H         -2.3429624962       -0.7270849363        1.1473411601
 H         -4.2263966998        1.1072185740       -1.4081284528
 H         -3.5295482336        2.7839961640        1.6858246103
 H         -1.2482549963        3.5226982599        2.3286857610
 H          0.6846475651        2.9015035781        0.9349521690
 C          0.7531585700        1.4438136738       -1.2918171066
 H          1.2219496621        2.3795739488       -1.6409513317
 C          0.4403522936        0.6263052776       -2.5375331350
 C          1.3947336150       -0.4099156581       -3.0491237525
 C          0.0812019109       -0.8273062089       -2.4628658456
 H         -0.6798527160       -1.2053906485       -3.1302053920
 H          0.0738109079       -1.2858351982       -1.4869161016
 H          1.5358048573       -0.4933135965       -4.1163934962
 H          2.2918369813       -0.5929100386       -2.4755547143
 H         -0.0699677590        1.2158353272       -3.2933230726
 O          3.4624294593        2.2327480168       -1.2833525443
