  62
        -98.94313235
 C         -0.2061714950       -1.9378282777       -0.2223985698
 C         -1.4167418814       -2.2049561101        0.4555865357
 C         -2.5863339257       -1.4273622100        0.0233792681
 C         -2.4460157756       -0.5312921393       -0.9702847675
 C         -3.5159539571        0.4100932842       -1.4472762613
 C         -3.6511846674        1.5932141130       -0.4661727995
 C         -4.9906907687        1.6555605408        0.2690920892
 H         -4.8836678781        2.3872025242        1.0731179143
 H         -5.7556113861        2.0267088462       -0.4167072587
 C         -5.4916417139        0.3343013206        0.8600556825
 H         -6.2837551243        0.5832580856        1.5694204753
 H         -5.9535386625       -0.2669496388        0.0753090067
 C         -4.4383587037       -0.5200224512        1.5773602667
 H         -3.6092540899        0.0998523014        1.9228717762
 H         -4.8997345873       -0.9560190936        2.4660845409
 C         -3.8838069642       -1.6859998573        0.7367480831
 H         -4.6406162540       -2.0130974234        0.0182551508
 H         -3.6751000177       -2.5286738922        1.4026638317
 H         -2.8394094833        1.5351523827        0.2648155450
 H         -3.5221187520        2.5333109707       -1.0068062431
 H         -3.2207997060        0.7667281649       -2.4342835468
 H         -4.4613283753       -0.1207658476       -1.5363241719
 O         -1.2718736575       -0.3234378649       -1.6198624869
 C         -0.1174538991       -0.9968662871       -1.2483685150
 O          0.8966335779       -0.6790298720       -1.8959592595
 O         -1.5127306327       -3.0512641462        1.3877149944
 C          1.0629391307       -2.6282046469        0.2345478909
 C          2.0905710316       -1.6169910036        0.6850475931
 C          3.4576366872       -1.8651854301        0.6281931177
 C          4.3628623458       -0.9144053346        1.0660327123
 C          3.9319909255        0.3101816545        1.5440613673
 C          2.5675006734        0.5685276629        1.6018854883
 C          1.6642529194       -0.4007146660        1.1992289868
 H          0.6090136579       -0.1858503275        1.2732514599
 N          2.0731503506        1.8026033784        2.0588061452
 S          0.7905175841        2.5223787032        1.2692445578
 O          0.8375806325        3.9021807325        1.7125873209
 O         -0.4413394707        1.8283821151        1.5583907971
 C          1.1282380101        2.4733975114       -0.4823360862
 C          2.4252146325        2.5025520741       -0.9522387144
 C          2.6404167792        2.5124892723       -2.3205341654
 C          1.5641751989        2.5055248104       -3.1923658921
 C          0.2681669699        2.4918805089       -2.7051020166
 C          0.0474896147        2.4767337011       -1.3385619739
 H         -0.9452904357        2.4481239284       -0.9200454657
 H         -0.5715947967        2.4784001013       -3.3814331293
 H          1.7355435168        2.5037843383       -4.2573171679
 H          3.6490997171        2.5180512802       -2.7014208859
 H          3.2535781231        2.5040396034       -0.2631520022
 H          2.7769452708        2.4837913728        2.3042241134
 H          4.6398646997        1.0572128782        1.8700474798
 H          5.4206128617       -1.1238286089        1.0210147515
 H          3.8128186992       -2.8055122821        0.2391999685
 H          0.7710886487       -3.2328124369        1.1073074208
 C          1.5897402074       -3.5554040408       -0.8435365469
 C          2.2430109132       -4.8550664459       -0.4815841003
 C          0.8754409194       -4.8489300073       -1.0932068958
 H          0.7598667653       -5.1871793174       -2.1118608912
 H          0.0297226486       -5.0748999242       -0.4599235624
 H          3.0690789842       -5.2018722989       -1.0840533592
 H          2.3234160376       -5.1025724580        0.5663196341
 H          1.9630523449       -3.0148612932       -1.7058713275
