  62
        -98.94303413
 C          0.8481755348        2.0139942560       -0.5565740721
 C          1.4763013932        1.0493766879       -1.3820243561
 C          2.7772220960        0.5507961354       -0.8999142546
 C          3.2638859483        0.9537767907        0.2856826630
 C          4.5652553872        0.5264804265        0.9083062629
 C          4.4895831868       -0.8221376396        1.6369064278
 C          4.4512846222       -2.0509405619        0.7276820354
 H          5.2600755820       -1.9882154833       -0.0018730426
 H          4.6460314425       -2.9205157759        1.3587972403
 C          3.1151510338       -2.2631628731        0.0026191493
 H          2.3288550825       -1.7024880658        0.5153435879
 H          2.8345991297       -3.3181696840        0.0640682042
 C          3.1334460738       -1.8867107042       -1.4787355369
 H          3.8348898728       -2.5359956052       -2.0084499554
 H          2.1380789375       -2.0668674267       -1.8904159744
 C          3.5149488825       -0.4288674500       -1.7653714051
 H          4.5896969893       -0.2951722540       -1.6399131118
 H          3.2546219428       -0.2085254132       -2.8039905574
 H          3.6067357990       -0.8232007485        2.2815105563
 H          5.3715215927       -0.8975353948        2.2777981850
 H          5.3449772707        0.4871506867        0.1465272686
 H          4.8278719170        1.2982438662        1.6352959066
 O          2.6112829683        1.8512263771        1.0710894085
 C          1.4088287366        2.4008767195        0.6659533413
 O          0.9365617941        3.2359608432        1.4646821273
 H         -0.8381353162        0.2455521023        0.1827516947
 C         -1.5277869690        0.9467137960        0.6212339698
 C         -1.4847030876        2.2717484213        0.2160834392
 C         -2.3528116661        3.1799135694        0.8078114452
 C         -3.2252177667        2.7654585918        1.7990057992
 C         -3.2455943296        1.4478423919        2.2190827303
 C         -2.3838793471        0.5291877793        1.6277317347
 N         -2.3934101322       -0.8128852275        2.0148549786
 S         -1.2099614002       -1.9097383251        1.5944308133
 O         -1.4732027982       -3.0438550275        2.4546969848
 O          0.1184693844       -1.3496940660        1.6771342121
 C         -1.6433446838       -2.3304259643       -0.0797402425
 C         -2.8555402874       -2.9613805728       -0.2847644317
 C         -3.2439962139       -3.2627662080       -1.5794098129
 C         -2.4217226839       -2.9247691461       -2.6446598563
 C         -1.2061548398       -2.2979701270       -2.4225715874
 C         -0.8108143754       -2.0007260788       -1.1280551239
 H          0.1263990176       -1.5048763224       -0.9300151542
 H         -0.5628953987       -2.0174958268       -3.2414705060
 H         -2.7290867507       -3.1502483008       -3.6536137982
 H         -4.1875254583       -3.7535055621       -1.7560311626
 H         -3.4630226339       -3.2083131479        0.5700373524
 H         -2.8963395220       -1.0410747226        2.8572441331
 H         -3.9117857238        1.1319430922        3.0070223365
 H         -3.8883500004        3.4803308976        2.2623032048
 H         -2.3202820173        4.2180045639        0.5114546936
 C         -0.4915296054        2.6854461879       -0.8420374752
 H         -0.3232504653        3.7696697391       -0.7197067789
 C         -1.0265740489        2.4685362859       -2.2480937289
 C         -2.0208753017        1.4023344387       -2.5847451009
 C         -2.4386791010        2.8408636634       -2.5908416265
 H         -2.6249401287        3.3211459062       -3.5393921949
 H         -3.0788800083        3.1775049853       -1.7896649535
 H         -1.8994654834        0.8873108567       -3.5248178815
 H         -2.3798307751        0.7690740777       -1.7873973113
 H         -0.2754886093        2.6752386648       -3.0012565600
 O          1.0222245581        0.6148826608       -2.4706732405
