  62
        -98.94386951
 C          1.0182177361        1.5645088698        0.0740669386
 C          1.1782517094        0.2486458315       -0.4266565576
 C          2.3430756358       -0.4881585245        0.0862098729
 C          3.1047575143        0.0423442580        1.0585849712
 C          4.2871027342       -0.6129177450        1.7188772475
 C          5.6071946959       -0.4283922264        0.9581256274
 C          5.7276364931       -1.2347011430       -0.3354669872
 H          6.7709486449       -1.1785074392       -0.6524579548
 H          5.5053773337       -2.2824346358       -0.1316229350
 C          4.8366004257       -0.7306435037       -1.4793482702
 H          4.5035681678        0.2867499092       -1.2612686401
 H          5.4198789780       -0.6837694564       -2.4018911532
 C          3.6126668859       -1.6025134829       -1.7613510782
 H          3.9371912084       -2.5847326225       -2.1119214945
 H          3.0364704541       -1.1332157701       -2.5631275257
 C          2.6793900408       -1.7981431529       -0.5587177757
 H          1.7466684162       -2.2387196509       -0.9164951368
 H          3.1351194541       -2.4739080629        0.1638583829
 H          5.7389130809        0.6337874306        0.7390533677
 H          6.4155463349       -0.7318106974        1.6274201361
 H          4.3897935821       -0.1491973503        2.7022613768
 H          4.0895061626       -1.6764112229        1.8529913390
 O          2.8601678264        1.2721724977        1.5840148862
 C          1.8582188035        2.0752719875        1.0698305379
 O          1.8065691153        3.2125814863        1.5808181280
 H         -1.5676770495        0.2848422553       -0.3693005110
 C         -2.0131041822        1.0819068673        0.2040268153
 C         -1.3675078503        2.3075972250        0.2900734095
 C         -1.9552086769        3.3267959591        1.0299880366
 C         -3.1697510324        3.1254115916        1.6611950845
 C         -3.8180630873        1.9080769773        1.5638363896
 C         -3.2318076153        0.8781359437        0.8344802801
 N         -3.8432793535       -0.3774651314        0.7717463678
 S         -3.5232879947       -1.5060254645       -0.4092193520
 O         -3.3972323614       -0.9047492855       -1.7157304742
 O         -4.6031368704       -2.4641606156       -0.2741055963
 C         -2.0173992894       -2.3181344259        0.0851111078
 C         -1.4563292048       -3.2005438867       -0.8159513054
 C         -0.3411806843       -3.9298821003       -0.4392202789
 C          0.1959344147       -3.7620420865        0.8278321402
 C         -0.3708375810       -2.8633087766        1.7161091363
 C         -1.4931022533       -2.1376855348        1.3477778620
 H         -1.9493480184       -1.4323195221        2.0229664687
 H          0.0561741297       -2.7225600405        2.6964378824
 H          1.0652830286       -4.3294912920        1.1204188911
 H          0.1073295352       -4.6217321463       -1.1345673525
 H         -1.8989916169       -3.2924396554       -1.7951030815
 H         -4.7731172452       -0.4499029406        1.1538128852
 H         -4.7666104334        1.7487409820        2.0533232258
 H         -3.6179727536        3.9245205994        2.2319112431
 H         -1.4477149432        4.2763103746        1.1168189304
 C         -0.0517851459        2.5283395142       -0.4157749076
 H          0.3084020707        3.5302688667       -0.1436996644
 C         -0.2510937510        2.4860829970       -1.9186908224
 C         -0.7728158504        3.7043447098       -2.6164996579
 C          0.6550159046        3.2870648796       -2.8018225404
 H          0.9544828834        2.8664750981       -3.7500376486
 H          1.4237447062        3.8773871996       -2.3237695295
 H         -1.4599149747        3.5699804123       -3.4379360519
 H         -0.9697219015        4.5807601840       -2.0174274945
 H         -0.5778666805        1.5207344707       -2.2833427825
 O          0.4110295053       -0.3076760060       -1.2566036599
