  62
        -98.94463025
 C         -2.6348372392       -0.9181801230        0.2208019909
 C         -2.4924176748       -0.0402084641       -0.8815266473
 C         -2.8853201932        1.3571457703       -0.6466490311
 C         -3.3949099188        1.7152315755        0.5447710223
 C         -3.7860795798        3.1110266476        0.9316857371
 C         -2.6220323568        3.8486627561        1.6074131356
 C         -1.2999419345        3.7609986124        0.8437344981
 H         -0.5679987829        4.3581579924        1.3923283483
 H         -0.9360770502        2.7301935680        0.8532795697
 C         -1.3676682550        4.2515783828       -0.6089714400
 H         -2.2493962934        4.8784338103       -0.7508357252
 H         -0.4903036578        4.8705420131       -0.8082250315
 C         -1.3634149853        3.1329519288       -1.6530085509
 H         -1.1650197825        3.5806434128       -2.6311992487
 H         -0.5411173061        2.4428971978       -1.4388603847
 C         -2.6660781199        2.3297229583       -1.7705362534
 H         -3.5124205372        3.0134772450       -1.8641662624
 H         -2.6068216313        1.7291927214       -2.6830401160
 H         -2.9028900786        4.8966656507        1.7275903494
 H         -2.4702733492        3.4202982012        2.6007181096
 H         -4.1065538635        3.6521833029        0.0437402539
 H         -4.6209207047        3.0513982587        1.6320917570
 O         -3.5764612322        0.8336327969        1.5600691401
 C         -3.1668568574       -0.4816077299        1.4389582367
 O         -3.3411399939       -1.1655772492        2.4671403615
 O         -2.0643629489       -0.3796364628       -2.0186450304
 C         -2.1543151807       -2.3644644246        0.2044269942
 C         -0.6557943685       -2.3440602379        0.3879576651
 C         -0.0747927770       -2.7075676538        1.5976760368
 C          1.2889246996       -2.5746997234        1.7942034698
 C          2.0971762193       -2.0524541745        0.7990782374
 C          1.5230606630       -1.6846319862       -0.4095878956
 C          0.1656620414       -1.8578670750       -0.6193655771
 H         -0.2691854607       -1.5456143879       -1.5569452938
 N          2.3260506034       -1.0643924317       -1.4011133337
 S          2.6373164955        0.5526646423       -1.0201800531
 O          1.5644396272        1.1294957056       -0.2416660030
 O          2.9468078412        1.2031318256       -2.2750384541
 C          4.1165480124        0.4415122396       -0.0365282102
 C          5.2711665632       -0.0037572486       -0.6504958192
 C          6.4289364909       -0.1152671925        0.1024288828
 C          6.4119890701        0.2185352527        1.4487966273
 C          5.2450421902        0.6654019933        2.0496592097
 C          4.0829936608        0.7785426626        1.3018496160
 H          3.1504537226        1.1154699689        1.7260455160
 H          5.2335995554        0.9240854822        3.0963122998
 H          7.3137810428        0.1302168707        2.0338450330
 H          7.3384220937       -0.4623653958       -0.3607793342
 H          5.2380625252       -0.2468583595       -1.6993803355
 H          1.8834808095       -1.0874630088       -2.3111212272
 H          3.1559887050       -1.9202655856        0.9529638442
 H          1.7240630526       -2.8629608729        2.7389250952
 H         -0.7075826555       -3.0697117603        2.3952796634
 H         -2.5992404024       -2.8382257548        1.0892165514
 C         -2.5841694679       -3.1394511927       -1.0238225592
 C         -2.5446394126       -4.6367347982       -0.9831857965
 C         -3.8612925835       -3.9211772397       -0.9844299021
 H         -4.4697229587       -3.9566577509       -1.8755800969
 H         -4.4319943233       -3.8998025432       -0.0673648858
 H         -2.2471578046       -5.1678750485       -1.8742069904
 H         -2.2229206021       -5.1025694964       -0.0640711855
 H         -2.3329794906       -2.6525504990       -1.9564285852
