  62
        -98.93998096
 C         -2.7444878010       -0.6130487005        0.1098240629
 C         -2.8422786141        0.3991775788        1.0939032491
 C         -3.1821888875        1.7389700044        0.6028657203
 C         -3.3966780869        1.9329433064       -0.7115047518
 C         -3.7697848925        3.2367490273       -1.3635809170
 C         -2.5706497125        4.1405534905       -1.6823605940
 C         -1.9120998971        4.8002474838       -0.4700245120
 H         -1.2329269898        5.5653232510       -0.8509839168
 H         -2.6728156417        5.3069145729        0.1244920799
 C         -1.1178285386        3.8351491669        0.4214313374
 H         -0.1483794608        4.2763436698        0.6636915229
 H         -0.9213171106        2.9117935843       -0.1291682253
 C         -1.8016489615        3.4878099919        1.7442043630
 H         -1.1724655181        2.7717618602        2.2800269164
 H         -1.8864355347        4.3858370927        2.3599101356
 C         -3.1968481763        2.8677080121        1.5893340797
 H         -3.5008442707        2.4607432405        2.5568579597
 H         -3.9160299593        3.6287491519        1.2880118880
 H         -2.9260009152        4.9290937473       -2.3495340977
 H         -1.8272989307        3.5539866424       -2.2272887100
 H         -4.2676439057        2.9826764239       -2.3017309491
 H         -4.4754014560        3.7746668696       -0.7299969623
 O         -3.3102462378        0.9289825004       -1.6239561317
 C         -2.9494786176       -0.3569833159       -1.2463050619
 O         -2.8542579109       -1.1603321067       -2.1924785084
 H         -0.1647452804       -0.4957818095        0.5532537771
 C          0.0284982709       -1.4318498837        0.0420538957
 C         -0.9997507068       -2.3606478141       -0.0689242440
 C         -0.7340375667       -3.5630591014       -0.7090751106
 C          0.5209974268       -3.8109633367       -1.2397123999
 C          1.5336576519       -2.8745140704       -1.1467421469
 C          1.2833314724       -1.6730918910       -0.4951863464
 N          2.2956790404       -0.6902453257       -0.4070434886
 S          3.7311442930       -1.1182117146        0.3778138791
 O          4.3512063686       -2.1991460050       -0.3428145845
 O          3.4791053590       -1.3534234946        1.7842907126
 C          4.6680820917        0.3808442873        0.1625829457
 C          5.3067739221        0.5929271797       -1.0440236433
 C          6.0064699218        1.7741357496       -1.2320928548
 C          6.0536980935        2.7184861879       -0.2171561006
 C          5.4081149697        2.4907484888        0.9887444619
 C          4.7060156273        1.3113973654        1.1829378671
 H          4.1960047469        1.0894262468        2.1069348131
 H          5.4480506840        3.2254522427        1.7768654569
 H          6.5985522406        3.6373819768       -0.3658654812
 H          6.5115170450        1.9545001023       -2.1673383256
 H          5.2477237742       -0.1713271219       -1.8010907207
 H          1.9429344581        0.1482856282        0.0374551407
 H          2.5129976921       -3.0632535424       -1.5540115969
 H          0.7114965973       -4.7481044296       -1.7407518888
 H         -1.5098987607       -4.3054736297       -0.7987018209
 C         -2.3388925730       -2.0120587510        0.5359343874
 H         -2.2106649694       -1.9584037892        1.6280405084
 C         -3.4311557904       -3.0120402092        0.2241853616
 C         -3.5798319106       -4.2496669425        1.0562302752
 C         -4.5829899828       -3.1429792768        1.1736326770
 H         -5.5715232175       -3.2948511257        0.7671817738
 H         -4.5661914513       -2.5279451135        2.0617177351
 H         -2.8842634383       -4.3918204326        1.8696688340
 H         -3.8827607269       -5.1646801162        0.5700098894
 H         -3.6470589590       -3.0763151570       -0.8361439346
 O         -2.6454944857        0.1945371714        2.3229961496
