  62
        -98.94311188
 C          1.9091536896        1.1154454912        0.3434374413
 C          2.4751535395        0.0939516748        1.1504350132
 C          3.8904242164       -0.2108855129        0.9167574334
 C          4.5774873270        0.4863553494       -0.0059185403
 C          6.0349003727        0.3199815946       -0.3408465569
 C          6.3224463232       -0.8084736391       -1.3403663970
 C          6.1722864655       -2.2242674235       -0.7824915047
 H          6.6116924541       -2.9056450379       -1.5136917833
 H          6.7522131895       -2.3152534701        0.1364549262
 C          4.7207879551       -2.6508670628       -0.5215468375
 H          4.0414891857       -1.9834973830       -1.0572671796
 H          4.5589307989       -3.6557108128       -0.9182996396
 C          4.3227935543       -2.6786645787        0.9543762586
 H          3.2672837396       -2.9564952683        1.0193551957
 H          4.9037810942       -3.4422349030        1.4766618238
 C          4.5063754603       -1.3414548062        1.6840653221
 H          3.9973261895       -1.4050174876        2.6490846943
 H          5.5651866577       -1.1507689669        1.8589319991
 H          5.6655688332       -0.6860131859       -2.2045564145
 H          7.3517387481       -0.6841726025       -1.6844824015
 H          6.3609444609        1.2635154827       -0.7836754438
 H          6.6032338357        0.1505154436        0.5741580288
 O          4.0069512089        1.4711510068       -0.7451361567
 C          2.6638559844        1.7987833943       -0.6109837111
 O          2.2980911634        2.7050844131       -1.3830569899
 O          1.8285297314       -0.5264176041        2.0372850607
 C          0.4381076083        1.4316294703        0.5636951792
 C         -0.4031609819        0.7935734053       -0.5162042543
 C         -0.4671163347        1.3156249893       -1.8046350525
 C         -1.2280792341        0.6910665891       -2.7753124023
 C         -1.9539025223       -0.4497585461       -2.4798567740
 C         -1.8945892293       -0.9819593019       -1.1980293527
 C         -1.1183123548       -0.3612978941       -0.2284960798
 H         -1.0660808450       -0.7988196603        0.7577303195
 N         -2.6215981661       -2.1407379852       -0.8654921499
 S         -3.6349100308       -2.0835740993        0.4669675387
 O         -2.8621588245       -2.0589196636        1.6815073564
 O         -4.5290075178       -3.2075235765        0.2971846575
 C         -4.5276363744       -0.5534789070        0.2633628999
 C         -4.0538239131        0.5943814456        0.8653967016
 C         -4.7050811644        1.7939754216        0.6256308461
 C         -5.8132696091        1.8238767310       -0.2066296716
 C         -6.2820512794        0.6606056815       -0.7982942948
 C         -5.6309090154       -0.5401561837       -0.5677042270
 H         -5.9655922072       -1.4685196290       -1.0016548064
 H         -7.1479188998        0.6870956846       -1.4400298252
 H         -6.3153975236        2.7601752709       -0.3919862024
 H         -4.3414391268        2.6989447253        1.0856350915
 H         -3.1929605825        0.5266770213        1.5104781467
 H         -3.1065034279       -2.5556777003       -1.6488564302
 H         -2.5530747052       -0.9315782178       -3.2376409643
 H         -1.2628405195        1.1019614983       -3.7728498199
 H          0.1097246506        2.1940122257       -2.0460963090
 H          0.1846520711        0.9402663613        1.5134096329
 C          0.1624339236        2.9150889338        0.7031990023
 C         -1.0778759131        3.3608576978        1.4152197902
 C          0.2635263329        3.5510824476        2.0557706092
 H          0.6688196800        4.5492844190        2.1259066351
 H          0.5263489982        2.9151347022        2.8890059235
 H         -1.5989772303        4.2303657973        1.0457778821
 H         -1.7219072267        2.5946681222        1.8194967830
 H          0.4992004985        3.5012140605       -0.1411715041
