  62
        -98.94594245
 C         -1.0952392613       -1.3159435295       -0.0325009796
 C         -1.7135497713       -0.5427557989        0.9847032899
 C         -2.5129367410        0.6075182610        0.5446156693
 C         -2.5837741907        0.8885447604       -0.7689235709
 C         -3.3635038804        2.0250320503       -1.3629345416
 C         -4.7842587204        1.5885535404       -1.7457164116
 C         -5.5153818007        0.8337998010       -0.6354065415
 H         -6.5169928307        0.6030372010       -1.0045304816
 H         -5.0098176510       -0.1189059890       -0.4614868909
 C         -5.6220171909        1.6015631416        0.6895990782
 H         -5.4443417907        2.6635922715        0.5169556777
 H         -6.6406444610        1.5009460220        1.0700111680
 C         -4.6846016512        1.1021871920        1.7904903086
 H         -4.7894632514        0.0195215320        1.8960551791
 H         -4.9995347313        1.5550756024        2.7342807783
 C         -3.1966503211        1.4263325116        1.6040270087
 H         -3.0746204009        2.4936822615        1.4070624883
 H         -2.6902463913        1.1844875419        2.5433742390
 H         -5.3551751702        2.4764704704       -2.0235739222
 H         -4.7220984803        0.9372765700       -2.6207545513
 H         -3.4033686804        2.8433173306       -0.6462296319
 H         -2.8408376501        2.3655322798       -2.2590069116
 O         -1.9766903606        0.1327752899       -1.7168232404
 C         -1.2298369409       -0.9927970601       -1.3845980398
 O         -0.7676275508       -1.5877862906       -2.3769362994
 H          1.3196210790       -0.9701454004       -1.2056396093
 C          1.8404051588       -1.2978504301       -0.3195312390
 C          1.1952088385       -2.0855196596        0.6225039712
 C          1.9085255482       -2.5078643692        1.7390356315
 C          3.2340799282       -2.1512704894        1.9062316717
 C          3.8655696885       -1.3430390399        0.9780590114
 C          3.1604920288       -0.9102065903       -0.1383964589
 N          3.7607618592       -0.0606931908       -1.0872415192
 S          2.9504076995        1.3524500791       -1.4810150400
 O          1.8364102596        1.0782129189       -2.3499291001
 O          3.9791440598        2.2181354787       -2.0179510601
 C          2.3853699493        1.9789385699        0.0897541396
 C          1.0889574792        1.7357044704        0.4935921295
 C          0.6898109290        2.1515544710        1.7538231992
 C          1.5899203090        2.8031957912        2.5823291291
 C          2.8874055791        3.0497515108        2.1585947593
 C          3.2937459293        2.6284538001        0.9033627995
 H          4.2903293894        2.8050337998        0.5323190797
 H          3.5819105190        3.5623492609        2.8043654692
 H          1.2740316588        3.1206384717        3.5634030589
 H         -0.3167230811        1.9463258313        2.0815040891
 H          0.4125933192        1.2268376002       -0.1756629404
 H          4.7321333392        0.1425880491       -0.8958199991
 H          4.8945415286       -1.0470470601        1.1136286915
 H          3.7764930580       -2.4902886591        2.7751809219
 H          1.4130017579       -3.1113686188        2.4843480917
 C         -0.2518960416       -2.4852229894        0.4414118411
 H         -0.6470573718       -2.7441911089        1.4338424811
 C         -0.3371713716       -3.7158000998       -0.4406465884
 C         -0.1054131820       -5.0690873096        0.1590176523
 C         -1.4833611718       -4.6653986995       -0.2703450682
 H         -1.9093164117       -5.1188560698       -1.1525873581
 H         -2.2098727019       -4.4376311791        0.4962315816
 H          0.4209345880       -5.8059273799       -0.4278195873
 H          0.0961955278       -5.1237952891        1.2177305224
 H          0.0186501986       -3.5429189803       -1.4482169984
 O         -1.5992452016       -0.8056781784        2.2117866201
