  62
        -98.93251454
 C         -2.5293139497       -1.0466111999        0.4842001505
 C         -2.6885157998        0.2045738605        1.1272559597
 C         -3.8301513599        1.0412455302        0.7118560093
 C         -4.6418803499        0.5854692495       -0.2603451304
 C         -5.8449270400        1.2564693491       -0.8690658407
 C         -5.4694626402        2.3822366485       -1.8446867014
 C         -4.3794534602        3.3256705389       -1.3439480420
 H         -3.4764911201        2.7495311691       -1.1335868417
 H         -4.1402056903        4.0167947684       -2.1565213325
 C         -4.7517878902        4.1561851396       -0.1178784125
 H         -5.6469103002        4.7412753094       -0.3400310228
 H         -3.9323258802        4.8577098698        0.0579334470
 C         -4.9890443100        3.3730881304        1.1758179880
 H         -5.9737569700        2.9135211503        1.1846027883
 H         -4.9765691400        4.0938709609        1.9985814776
 C         -3.9216482299        2.3304891606        1.4925093385
 H         -2.9321641300        2.7971615107        1.4267088682
 H         -4.0276842998        2.0295952113        2.5417043187
 H         -5.1138953902        1.9232066080       -2.7704992011
 H         -6.3709295002        2.9525306683       -2.0755123317
 H         -6.3857642200        0.4845207087       -1.4210651102
 H         -6.5021823400        1.6261029195       -0.0876102008
 O         -4.4320680199       -0.6127029108       -0.8746616897
 C         -3.3881149498       -1.4544499005       -0.5361784692
 O         -3.3542925998       -2.5060174209       -1.2029535486
 O         -1.9057230698        0.6150555311        2.0275001694
 C         -1.3652087896       -1.9174320495        0.9272039609
 C         -0.2456220497       -1.8105476800       -0.0803339392
 C         -0.1904509197       -2.6029972007       -1.2209897788
 C          0.8450226602       -2.4512022612       -2.1262376689
 C          1.8425281901       -1.5160790310       -1.9155006796
 C          1.7959829401       -0.7183944503       -0.7797101600
 C          0.7577852002       -0.8735379098        0.1292196801
 H          0.7126910902       -0.2446379093        1.0089181298
 N          2.7984054401        0.2456475699       -0.5645390307
 S          4.3929191101       -0.2441908401       -0.8428253605
 O          4.6738021200       -0.0993109710       -2.2494080606
 O          4.6087457102       -1.5618972698       -0.2888737597
 C          5.3025321501        0.9755355805        0.0843120487
 C          5.5648461200        2.2005591601       -0.4989851921
 C          6.2546277699        3.1550871006        0.2314482373
 C          6.6671331400        2.8709328114        1.5248976575
 C          6.3969769302        1.6365767218        2.0964043982
 C          5.7067481202        0.6776364813        1.3719332189
 H          5.4835542703       -0.2985138585        1.7721158795
 H          6.7213587803        1.4176724324        3.1010402183
 H          7.2053772600        3.6149720918        2.0905275570
 H          6.4691791298        4.1150749104       -0.2096685933
 H          5.2332819399        2.3733076695       -1.5095455021
 H          2.7052219901        0.6947849604        0.3364545491
 H          2.6584716801       -1.3975111613       -2.6105297397
 H          0.8768089502       -3.0711522717       -3.0098961286
 H         -0.9744479197       -3.3188715309       -1.4079057883
 H         -1.0123756596       -1.4640415589        1.8635583306
 C         -1.7683391295       -3.3493696294        1.2110858218
 C         -0.8326550594       -4.2223840088        1.9906971123
 C         -2.1099680594       -3.7479187885        2.6142487121
 H         -2.9062172193       -4.4608512485        2.7669295425
 H         -2.0529998694       -2.9872562881        3.3792463016
 H         -0.7483488593       -5.2623417290        1.7154121029
 H          0.0932817706       -3.7821096486        2.3293391819
 H         -2.3410719195       -3.8066059899        0.4151500821
