  62
        -98.93722610
 C         -1.8205085875       -0.4586451073        0.1577004418
 C         -2.9160217280       -0.6031718485        1.0369865404
 C         -4.2613113082       -0.6284356254        0.4305379658
 C         -4.3683066289       -0.5199076710       -0.9071788625
 C         -5.6232973091       -0.4728066024       -1.7375179917
 C         -6.3329969776        0.8891242750       -1.6609932410
 C         -6.4257373713        1.4898629099       -0.2606368003
 H         -5.4206842524        1.5931897259        0.1526706366
 H         -6.8403351377        2.4967965349       -0.3579565340
 C         -7.3019055435        0.7178232107        0.7229227975
 H         -7.3416196927        1.2991458787        1.6478229660
 H         -8.3177470544        0.6568400129        0.3259958624
 C         -6.8307978851       -0.6956397824        1.0704979758
 H         -7.4034637132       -1.0239310996        1.9429425563
 H         -7.0617154003       -1.3933210679        0.2700791570
 C         -5.3579713035       -0.8008886748        1.4539545408
 H         -5.1424951663       -0.0789086503        2.2501032038
 H         -5.1859303989       -1.7854392020        1.9059260213
 H         -5.7797369520        1.5928958131       -2.2876463816
 H         -7.3348867793        0.7804732601       -2.0796343184
 H         -5.3212033574       -0.6487944418       -2.7722041412
 H         -6.2933098425       -1.2764465697       -1.4468813869
 O         -3.2794815342       -0.3888584077       -1.7183699623
 C         -1.9892186901       -0.3559906632       -1.2226670775
 O         -1.1033257582       -0.2355177038       -2.0893367685
 O         -2.7833344873       -0.6976880303        2.2884726280
 C         -0.4165578076       -0.4258977544        0.7284573088
 C          0.2996850737        0.8494857908        0.3572681014
 C         -0.4048446430        2.0497044723        0.3148060829
 C          0.2273634388        3.2310745784       -0.0192786725
 C          1.5838582818        3.2477320587       -0.2915592737
 C          2.3028259908        2.0615531109       -0.2288867844
 C          1.6598378904        0.8720856770        0.0868541364
 H          2.2370542647       -0.0368459220        0.1269735333
 N          3.6809993011        2.0412114620       -0.4939116196
 S          4.6932611240        1.1637089260        0.5107764284
 O          4.1856394535        1.1102175387        1.8617515778
 O          5.9944420388        1.7774063674        0.3463031918
 C          4.7459148047       -0.4707967180       -0.1921045878
 C          4.7563817194       -0.6149818800       -1.5653792160
 C          4.8498348400       -1.8888829816       -2.1027078543
 C          4.9412262591       -2.9898997783       -1.2644125770
 C          4.9356804924       -2.8276307631        0.1122636453
 C          4.8368582767       -1.5562647988        0.6562711493
 H          4.8156574140       -1.3860263766        1.7207988172
 H          5.0060458509       -3.6842916671        0.7637734412
 H          5.0153769617       -3.9799580462       -1.6860814222
 H          4.8509994769       -2.0192817909       -3.1729556438
 H          4.6818621406        0.2608792341       -2.1878963797
 H          4.0800563871        2.9407292716       -0.7209427920
 H          2.0809362720        4.1707627265       -0.5492471053
 H         -0.3382747839        4.1499529165       -0.0600703188
 H         -1.4627440044        2.0438812516        0.5395549661
 H         -0.5439555052       -0.4350637874        1.8222080897
 C          0.3362957017       -1.6753621248        0.3175654662
 C          1.3531916797       -2.2911175331        1.2299115087
 C          0.0307171615       -2.9632729767        1.0201112889
 H         -0.0005809599       -3.8730087419        0.4398944321
 H         -0.6952528333       -2.9290034161        1.8194002977
 H          2.2305119536       -2.7406022778        0.7897253682
 H          1.5346706899       -1.8063926011        2.1777535913
 H          0.5148147564       -1.7167383860       -0.7512675116
