  62
        -98.93314941
 C          2.0477969814        1.1225415318       -0.1881127857
 C          2.3225154117        0.3347546431        0.9571806870
 C          2.5253149724       -1.1068223999        0.7513835512
 C          2.3972900762       -1.6061756407       -0.4893526871
 C          2.5780249837       -3.0336098983       -0.9279058837
 C          4.0205202074       -3.2843877781       -1.3995948477
 C          5.0010101797       -3.6764157580       -0.2947776973
 H          4.7725474635       -4.6890938503        0.0435578754
 H          5.9988966065       -3.6953780231       -0.7386345827
 C          5.0213346571       -2.7472899502        0.9216649255
 H          4.9874702125       -1.7077858545        0.5907177046
 H          5.9718129591       -2.8925618249        1.4384804524
 C          3.8740710751       -3.0166137463        1.9068934892
 H          4.2814176559       -3.1358247292        2.9129779977
 H          3.3984467178       -3.9631003296        1.6509423052
 C          2.8103325013       -1.9120870519        1.9895043367
 H          1.8666928993       -2.3437766343        2.3410244198
 H          3.1096174718       -1.1707285228        2.7374678112
 H          4.3697522741       -2.3769825442       -1.8989006125
 H          4.0110753596       -4.0835972037       -2.1435135004
 H          1.9008140824       -3.1833304312       -1.7718623375
 H          2.2971709192       -3.7164458608       -0.1313870449
 O          2.1283631676       -0.8202754330       -1.5659651622
 C          1.9255463606        0.5493840691       -1.4539202340
 O          1.6761340634        1.1025163283       -2.5409527878
 O          2.4066065646        0.8302730412        2.1151860926
 C          1.7509257433        2.5881646925        0.0802880054
 C          0.3551879517        2.6991385098        0.6449451648
 C          0.0693958868        3.5370895936        1.7161518352
 C         -1.2063176380        3.5839328160        2.2504787472
 C         -2.2102553245        2.7757232014        1.7486569656
 C         -1.9335597179        1.9347445748        0.6765282559
 C         -0.6656739263        1.9223410487        0.1170074044
 H         -0.4698782922        1.2669062167       -0.7196844036
 N         -2.9161754485        1.0856776656        0.1402931770
 S         -2.4083005028       -0.4516750780       -0.3564951870
 O         -1.4225544489       -0.9705858374        0.5647061165
 O         -2.0285652090       -0.3878060507       -1.7454279912
 C         -3.9370219072       -1.3580730378       -0.1983057308
 C         -4.8526758521       -1.3096517873       -1.2324729585
 C         -6.0575115994       -1.9801375381       -1.0920505754
 C         -6.3258747990       -2.6823132007        0.0736540538
 C         -5.3962890771       -2.7237658544        1.1020270609
 C         -4.1896104448       -2.0548744756        0.9683768197
 H         -3.4324341919       -2.0652100998        1.7361752156
 H         -5.6055264072       -3.2733700643        2.0055585707
 H         -7.2641934634       -3.2030973468        0.1803957785
 H         -6.7807669148       -1.9528245614       -1.8909053861
 H         -4.5944981796       -0.7580794733       -2.1214846692
 H         -3.7484307804        1.0363853669        0.7127101401
 H         -3.1974301272        2.7883543814        2.1849152465
 H         -1.4152258383        4.2379562955        3.0833102276
 H          0.8605166842        4.1330492102        2.1467409926
 H          2.4478233844        2.8892821724        0.8802708970
 C          1.9855742235        3.5124663190       -1.1024180320
 C          0.8722506398        4.0504702207       -1.9449183382
 C          1.6114357192        4.9628112940       -1.0153626655
 H          2.2856438098        5.6926406830       -1.4368469225
 H          1.0941430178        5.2945488759       -0.1282487634
 H          1.0431276197        4.1284370910       -3.0074682304
 H         -0.1369328966        3.7636207596       -1.6910941325
 H          2.9076098249        3.2764779627       -1.6226810097
