  62
        -98.94947149
 C         -1.0801557457       -1.6662135627       -0.2807654378
 C         -2.3564213559       -1.4644387648        0.2924272424
 C         -3.1027396986       -0.3021146369       -0.2009667184
 C         -2.5552502506        0.4924411033       -1.1382839794
 C         -3.1832366434        1.7257560114       -1.7291389904
 C         -3.0027421157        2.9831531727       -0.8668482917
 C         -3.8772668654        3.0435958620        0.3860317786
 H         -3.8358730274        4.0705667925        0.7548233676
 H         -4.9140579650        2.8327152096        0.1202194892
 C         -3.4268204930        2.1027497241        1.5122670994
 H         -2.3874858924        1.8064163761        1.3473589492
 H         -3.4474282237        2.6410788350        2.4633508588
 C         -4.2927180303        0.8541547924        1.6838099809
 H         -3.8456548187        0.2352745441        2.4661739113
 H         -5.2920311208        1.1466042607        2.0159073210
 C         -4.4336024689       -0.0051615391        0.4212909018
 H         -5.0875585803        0.4885524088       -0.2975022784
 H         -4.8845949968       -0.9587857598        0.7082833129
 H         -1.9543944458        3.0619622952       -0.5662704422
 H         -3.2379413578        3.8473878815       -1.4929134424
 H         -4.2459617231        1.5528894490       -1.9024403798
 H         -2.6969005541        1.8929197715       -2.6926840307
 O         -1.3366768003        0.2473228154       -1.6875677996
 C         -0.5583387079       -0.8171329326       -1.2570382789
 O          0.5513770821       -0.9028945208       -1.8156582592
 O         -2.8471598240       -2.2183472950        1.1775118434
 C         -0.2070144831       -2.7939821104        0.2320609329
 C          1.1139399559       -2.2593710571        0.7320091519
 C          2.2882602075       -3.0025043746        0.6905018422
 C          3.4754026465       -2.4676806417        1.1595637912
 C          3.5265859940       -1.1762401311        1.6523686199
 C          2.3578913924       -0.4260670935        1.6984737696
 C          1.1641552334       -0.9810103165        1.2699840506
 H          0.2662236422       -0.3849613783        1.3319542304
 N          2.3510006598        0.9012322169        2.1678274483
 S          1.5958460270        2.0687733144        1.2394725475
 O          2.0987912546        3.3207320060        1.7710758360
 O          0.1643103974        1.9086515615        1.2860808482
 C          2.1884579768        1.8787192540       -0.4326720826
 C          1.3104119259        2.0947103212       -1.4726208225
 C          1.7697652256        1.9966807009       -2.7754253125
 C          3.0971498762        1.6838735034       -3.0154570627
 C          3.9714563570        1.4765548263       -1.9602496829
 C          3.5176334173        1.5793414666       -0.6560049228
 H          4.1834866479        1.4281846889        0.1776566671
 H          5.0042448575        1.2313921883       -2.1494468630
 H          3.4508791960        1.5983234332       -4.0308838828
 H          1.0851078150        2.1521333086       -3.5936872524
 H          0.2797233455        2.3167381192       -1.2474612523
 H          3.2442395792        1.2366580891        2.4991621176
 H          4.4571756732       -0.7537354688        2.0000428991
 H          4.3775677278       -3.0589558198        1.1249127514
 H          2.2727512594       -4.0018560151        0.2869336432
 H         -0.7528714819       -3.2260047607        1.0851318436
 C         -0.0404351913       -3.8642094511       -0.8293594461
 C          0.0441158119       -5.3117526805       -0.4491488847
 C         -1.1899859994       -4.7825809638       -1.1135139147
 H         -1.3885483193       -5.0602383552       -2.1377145344
 H         -2.0806300795       -4.6562293551       -0.5152059745
 H          0.6934958931       -5.9577510397       -1.0206847843
 H         -0.0167100571       -5.5596870296        0.5999248356
 H          0.5460289077       -3.5191036406       -1.6735356567
