  62
        -98.94673494
 C         -1.7633564287       -1.3322833505       -0.0505385906
 C         -2.5803335191       -0.6674820506        0.8935178592
 C         -3.0894293496        0.6457326191        0.4839886887
 C         -2.7693187396        1.1382105589       -0.7270188214
 C         -3.2455811901        2.4451929085       -1.3009280818
 C         -2.4150622607        3.6604536390       -0.8674093721
 C         -2.6035879110        4.0959719093        0.5858077878
 H         -3.6662997611        4.2216107189        0.7953076976
 H         -2.1337245015        5.0755873595        0.6919582576
 C         -1.9842151508        3.1381730799        1.6132249681
 H         -1.4220718911        3.7103248303        2.3548522180
 H         -1.2713500904        2.4785205400        1.1114996084
 C         -3.0018509605        2.2868204096        2.3732654783
 H         -3.6372956308        2.9329559696        2.9830981980
 H         -2.4588142003        1.6190906101        3.0476109885
 C         -3.8998123800        1.4257013690        1.4748500384
 H         -4.6308421602        2.0513799786        0.9634096981
 H         -4.4322204398        0.7106494490        2.1070154985
 H         -2.6961790809        4.4947824387       -1.5137743823
 H         -1.3613524506        3.4372904694       -1.0411896519
 H         -4.2913115702        2.6009969281       -1.0338698720
 H         -3.1754752699        2.3503373682       -2.3864317718
 O         -1.9737235792        0.4703795989       -1.6032277211
 C         -1.4362329888       -0.7687086307       -1.2844806907
 O         -0.7051624485       -1.2539373607       -2.1661803705
 O         -2.8674708990       -1.1474386104        2.0241300393
 C         -1.1778434682       -2.6862924202        0.3064877099
 C          0.3285138118       -2.6050530896        0.2927756701
 C          1.1424104723       -3.5242034794       -0.3547532196
 C          2.5189027022       -3.3693041488       -0.3489046195
 C          3.1128684917       -2.3054865384        0.3042716103
 C          2.3071849912       -1.3829375385        0.9616649299
 C          0.9305328613       -1.5420116891        0.9567420598
 H          0.3055481309       -0.8218756092        1.4711714995
 N          2.8989095407       -0.2935540381        1.6359942597
 S          3.7825602003        0.8107514520        0.7421034195
 O          4.8606446807        0.1194936323        0.0831888698
 O          4.1604516198        1.8444527024        1.6783576192
 C          2.6617691602        1.4860943012       -0.4713619908
 C          2.2163738996        2.7842619611       -0.3181095613
 C          1.3470130595        3.3103460804       -1.2596080415
 C          0.9241648200        2.5257299299       -2.3226577813
 C          1.3698765205        1.2200197601       -2.4558090309
 C          2.2526429006        0.6938701807       -1.5259081807
 H          2.6187707711       -0.3162770391       -1.6120437303
 H          1.0201439509        0.5983159897       -3.2641548908
 H          0.2413998999        2.9300713194       -3.0538929915
 H          1.0032465991        4.3280627603       -1.1609360018
 H          2.5675737293        3.3562237215        0.5256862086
 H          2.2494086204        0.2070086118        2.2265212295
 H          4.1809011416       -2.1615269279        0.2984598904
 H          3.1389242826       -4.0883360287       -0.8626272292
 H          0.7006172427       -4.3589669497       -0.8732375694
 H         -1.5014681582       -2.8826326100        1.3397226299
 C         -1.7399765476       -3.7669016107       -0.5922791399
 C         -1.8513223471       -5.1773300706       -0.0977702695
 C         -3.0849084074       -4.3450616411       -0.2728978899
 H         -3.7541251172       -4.5760734317       -1.0880187699
 H         -3.5857584376       -3.9772304511        0.6108602400
 H         -1.6761663266       -5.9839838107       -0.7935590792
 H         -1.5177722971       -5.3826604502        0.9082341406
 H         -1.5008925275       -3.6059683709       -1.6373726899
