  62
        -98.93484437
 C         -2.1587945700       -1.2967372305        0.2072627305
 C         -1.7459278800        0.0107437894       -0.1608134898
 C         -2.7938327099        0.8940120993       -0.7043725501
 C         -4.0765887299        0.4960247993       -0.6979738801
 C         -5.2441451099        1.3253453791       -1.1449358704
 C         -5.8356928000        2.1257423994        0.0242095094
 C         -4.7938110301        2.8877936696        0.8434542393
 H         -5.3306727202        3.4382418998        1.6191136691
 H         -4.1448556501        2.1700930198        1.3505814195
 C         -3.9314511300        3.8624432094        0.0291414991
 H         -3.8580022801        4.8049883796        0.5757292389
 H         -4.4160814700        4.0785597192       -0.9237644510
 C         -2.5014632700        3.3830363394       -0.2266469806
 H         -2.0446299501        3.0735840696        0.7165069095
 H         -1.9232176900        4.2274889993       -0.6111690208
 C         -2.3553486799        2.2325407392       -1.2304029604
 H         -2.8908517898        2.4762723389       -2.1502076105
 H         -1.2919779499        2.1356512491       -1.4678336002
 H         -6.3535404500        1.4322590896        0.6908957595
 H         -6.5716139600        2.8263645193       -0.3745399409
 H         -6.0108998199        0.6567184090       -1.5399759703
 H         -4.9228599498        2.0004413190       -1.9357707305
 O         -4.4575479999       -0.7061409106       -0.2005844798
 C         -3.5248677300       -1.6074848705        0.2794994605
 O         -4.0379754000       -2.6366347704        0.7628075907
 O         -0.5791115500        0.4676613395       -0.0488833698
 C         -1.2277763100       -2.3871098903        0.7436126608
 C          0.2327363200       -2.0402043003        0.7905815409
 C          0.9480597999       -2.1756353100        1.9739046510
 C          2.3070001399       -1.9125518000        2.0168566610
 C          2.9748480800       -1.4854036002        0.8846848210
 C          2.2635340301       -1.3239767105       -0.2980309891
 C          0.9111571301       -1.6285934306       -0.3482255592
 H          0.3722552902       -1.4918995208       -1.2747377792
 N          2.9143917502       -0.8436566508       -1.4460234192
 S          4.1273004101        0.2908460592       -1.2867119194
 O          4.1241808702        1.0183817389       -2.5386020995
 O          5.3658018601       -0.3802403907       -0.9678399591
 C          3.7024921000        1.3930734796        0.0551990103
 C          2.3973211000        1.8000233096        0.2441947601
 C          2.1203081699        2.6908803298        1.2698041499
 C          3.1410671798        3.1647278700        2.0780379299
 C          4.4473086998        2.7477807800        1.8728736101
 C          4.7316283799        1.8540580698        0.8536135103
 H          5.7307440000        1.4955529197        0.6649232705
 H          5.2421132698        3.1131575602        2.5031838101
 H          2.9162621597        3.8583094602        2.8730186897
 H          1.0990549999        2.9980966299        1.4293853897
 H          1.5965319900        1.4122542394       -0.3641792198
 H          2.2880821502       -0.6008877210       -2.1991042993
 H          4.0316333500       -1.2710848802        0.8988470910
 H          2.8486206498       -2.0313293598        2.9427408911
 H          0.4311646998       -2.4871414398        2.8705093910
 H         -1.5655306801       -2.5856108101        1.7756872309
 C         -1.4376162799       -3.7128813005       -0.0004151589
 C         -0.5383051498       -4.2716516908       -1.0586840787
 C         -0.5744393499       -4.9014608004        0.3003224615
 H         -1.0452558499       -5.8654522504        0.4191127617
 H          0.2831989600       -4.7464135903        0.9381308115
 H         -1.0054997097       -4.7936421210       -1.8811619086
 H          0.3571984702       -3.7379794308       -1.3337421687
 H         -2.4930572999       -3.9218910106       -0.1220347289
