  62
        -98.93206362
 C         -2.7600277954       -0.5271523188       -0.0406773997
 C         -2.2579903248        0.3633390843       -1.0203344665
 C         -2.2598649397        1.8039119879       -0.6737619463
 C         -2.7974108723        2.1986265426        0.4934486609
 C         -2.8990419329        3.5867705078        1.0706627723
 C         -1.5664384222        4.0974172914        1.6339048179
 C         -0.3698394703        3.9216541673        0.7034353600
 H          0.5135847420        4.2938452799        1.2294354200
 H         -0.2018868625        2.8596298085        0.5129146997
 C         -0.4671544452        4.6683723906       -0.6254179017
 H         -0.6451563052        5.7286345848       -0.4312800453
 H          0.5067881344        4.5759816072       -1.1126389695
 C         -1.5286107176        4.1621900185       -1.6073597666
 H         -1.2691173641        4.5519889338       -2.5959914357
 H         -2.5145598036        4.5546988343       -1.3707696143
 C         -1.5939967505        2.6439764979       -1.7360149358
 H         -2.1043450095        2.3883340764       -2.6724349562
 H         -0.5776893125        2.2436368378       -1.8432072157
 H         -1.6837797658        5.1543767956        1.8818471734
 H         -1.3563254647        3.5533870371        2.5581246203
 H         -3.2901814445        4.2769991557        0.3292759074
 H         -3.6224399069        3.5285633799        1.8873626466
 O         -3.3446453130        1.3077825131        1.3727412506
 C         -3.2928837457       -0.0531976069        1.1591881771
 O         -3.7694907821       -0.7375654986        2.0892391229
 H         -0.2164236216       -0.9148811863       -0.2355725813
 C         -0.2276057764       -1.8019971645        0.3775003324
 C         -1.4068757634       -2.5160576720        0.5329264342
 C         -1.3954318687       -3.6581362819        1.3247399676
 C         -0.2244968841       -4.0775531160        1.9321707135
 C          0.9487924776       -3.3634784316        1.7728042061
 C          0.9429850758       -2.2056981835        1.0002480943
 N          2.0998959793       -1.4209411309        0.8845784436
 S          2.2659038336       -0.3111488004       -0.3732942797
 O          1.4066165400        0.8156197156       -0.1181966380
 O          2.1238320645       -0.9778824569       -1.6482820787
 C          3.9668940794        0.1624552222       -0.1249440125
 C          4.2549825529        1.1495430436        0.7981810799
 C          5.5785015725        1.4977822697        1.0165473956
 C          6.5868349120        0.8562232238        0.3126658110
 C          6.2826737280       -0.1307473477       -0.6128588468
 C          4.9609289496       -0.4838926141       -0.8351648687
 H          4.6760202551       -1.2368094788       -1.5524400898
 H          7.0681353273       -0.6250422369       -1.1614287176
 H          7.6159455474        1.1296812239        0.4839562193
 H          5.8179072421        2.2671889792        1.7326928789
 H          3.4370123651        1.6252386710        1.3139417718
 H          2.9547789380       -1.9256331017        1.0708298415
 H          1.8591830750       -3.6864840302        2.2536739206
 H         -0.2261862123       -4.9692205294        2.5404950137
 H         -2.3133063957       -4.2074506992        1.4745335357
 C         -2.6708242113       -2.0411372507       -0.1426708568
 H         -3.5211287086       -2.4302673096        0.4415063861
 C         -2.8099094178       -2.5782834614       -1.5590788740
 C         -1.6425732757       -3.0227534425       -2.3823874196
 C         -2.6026655698       -4.0371942432       -1.8424015805
 H         -3.2752300053       -4.5270153257       -2.5301036481
 H         -2.2631868588       -4.6628044001       -1.0312171775
 H         -1.6580650804       -2.7910378654       -3.4363743008
 H         -0.6569651583       -2.9523357736       -1.9469680704
 H         -3.6145675520       -2.0870385973       -2.0964169102
 O         -1.8206104069        0.0077639500       -2.1452889865
