  62
        -98.94358305
 C         -1.7335328642       -1.2549237111        0.1273616755
 C         -1.8639222588       -0.0379443878       -0.5846123735
 C         -3.2384752996        0.3512722105       -0.9331780364
 C         -4.2605933240       -0.4524164496       -0.5872103971
 C         -5.7102382564       -0.1484377653       -0.8295766690
 C         -6.3288446347        0.5920520280        0.3644918334
 C         -5.5057189403        1.7878569334        0.8437977969
 H         -6.0530669295        2.2493576273        1.6686910473
 H         -4.5569837563        1.4287663643        1.2493853339
 C         -5.2266047241        2.8409399486       -0.2376527873
 H         -5.4042413584        3.8319643426        0.1853616960
 H         -5.9234832350        2.7135702137       -1.0668744418
 C         -3.7937421398        2.8352599847       -0.7737792788
 H         -3.6478158681        3.7459084016       -1.3608112793
 H         -3.0894729275        2.8676022034        0.0615002052
 C         -3.4218208052        1.6477541160       -1.6706153415
 H         -4.1631461563        1.5395998710       -2.4648392210
 H         -2.4536910576        1.8688883373       -2.1289832477
 H         -6.4266009964       -0.1110704621        1.1950111890
 H         -7.3293619031        0.9258326386        0.0832977959
 H         -5.8045605455        0.4526956924       -1.7317274760
 H         -6.2401523535       -1.0913406514       -0.9747225219
 O         -4.0915002474       -1.6253308751        0.0763696231
 C         -2.8299718224       -2.0476735397        0.4633750256
 O         -2.8169063581       -3.1261606958        1.0916483272
 H          2.1481970236       -0.6047701603        0.3491223565
 C          1.5727477834       -0.1981451343        1.1618521855
 C          0.2963862994       -0.6725832826        1.4138289415
 C         -0.4101438757       -0.1474512696        2.4932448357
 C          0.1442821188        0.8388952835        3.2850389582
 C          1.4119435969        1.3257384239        3.0168298836
 C          2.1281537185        0.8047817183        1.9458409075
 N          3.3883397244        1.3132046405        1.6231139025
 S          4.5046899787        0.4961167615        0.7013059900
 O          4.6511735566       -0.8771713716        1.1256972613
 O          5.6985272378        1.3095232679        0.7927453357
 C          3.8700481123        0.5568648210       -0.9616548805
 C          4.0635558506       -0.5355416352       -1.7839505920
 C          3.5806060826       -0.4936241024       -3.0818160288
 C          2.9170864128        0.6366545673       -3.5333345558
 C          2.7367158057        1.7275933765       -2.6973881522
 C          3.2189056724        1.6924091151       -1.3990621683
 H          3.0839074750        2.5205216040       -0.7235520091
 H          2.2136339971        2.6018024334       -3.0499332110
 H          2.5343529718        0.6655210082       -4.5414711357
 H          3.7183469953       -1.3419673731       -3.7334111167
 H          4.5747294655       -1.3983547323       -1.3863460812
 H          3.7891258850        1.9806921876        2.2627594631
 H          1.8403177773        2.1058473117        3.6272439629
 H         -0.4154607315        1.2370547091        4.1182590125
 H         -1.4043951893       -0.5219437304        2.6982650410
 C         -0.3565405782       -1.7290162403        0.5562551476
 H         -0.5180254003       -2.6237096171        1.1753275048
 C          0.4618953179       -2.1153380191       -0.6582679587
 C          1.5504869896       -3.1377284825       -0.5402459300
 C          0.2776523466       -3.4769774058       -1.2546181352
 H          0.2997727761       -3.5763758627       -2.3292580347
 H         -0.4229907503       -4.1407229340       -0.7688020631
 H          1.7233477114       -3.5753170841        0.4315607067
 H          2.4484004970       -3.0041024733       -1.1241181031
 H          0.6110424672       -1.2863823241       -1.3412825971
 O         -0.8886320730        0.6858902316       -0.9111935333
