  62
        -98.93306032
 C         -2.3026609988        0.6535110332        0.1044167760
 C         -3.4333183716        1.0019696200       -0.6709586161
 C         -4.7345513995        0.5467420150       -0.1599962271
 C         -4.7776863147       -0.1482022063        0.9916650712
 C         -6.0132214230       -0.7507826344        1.5982056693
 C         -6.3933697642       -2.0420390040        0.8454225198
 C         -7.7237492045       -1.9672143492        0.0956918588
 H         -7.7785810283       -2.8387701732       -0.5600895034
 H         -8.5413337083       -2.0443204332        0.8154148241
 C         -7.9508463737       -0.7018759985       -0.7369926437
 H         -8.2632585317        0.1155194061       -0.0855152044
 H         -8.7909743174       -0.9066564438       -1.4039738277
 C         -6.7583330027       -0.2296238585       -1.5785720538
 H         -6.0872526961       -1.0608160207       -1.7961454250
 H         -7.1395751675        0.1297816693       -2.5365773801
 C         -5.9527773924        0.9261964888       -0.9561335632
 H         -5.5716258839        1.5597139333       -1.7625936623
 H         -6.6139615602        1.5417353934       -0.3400091591
 H         -5.5907210749       -2.2771742635        0.1432939659
 H         -6.4452005249       -2.8724512841        1.5511138771
 H         -6.8286691967       -0.0318562545        1.5617531725
 H         -5.7876702652       -0.9715111440        2.6415720159
 O         -3.6681018172       -0.4562175602        1.7133168834
 C         -2.4046773713       -0.0668815876        1.2937893936
 O         -1.4800132764       -0.4166866298        2.0511456252
 O         -3.3565410575        1.6598223973       -1.7442635010
 C         -0.9291355675        1.0944818354       -0.3629121516
 C         -0.0062007874       -0.0871008161       -0.5311586909
 C         -0.4709141050       -1.2285207445       -1.1804738553
 C          0.3546725614       -2.3187466781       -1.3727021342
 C          1.6705826363       -2.2876986054       -0.9449980025
 C          2.1467183428       -1.1522410073       -0.3023041975
 C          1.3083423406       -0.0651111875       -0.0942276090
 H          1.7076339934        0.7992651443        0.4092969059
 N          3.4731453410       -1.0847421429        0.1531833842
 S          4.2748064225        0.3975736248        0.0331030686
 O          3.9976933746        1.1786023649        1.2120979294
 O          3.9699137037        1.0211763518       -1.2345454177
 C          5.9739271846       -0.1460176226        0.0559673676
 C          6.5974477869       -0.3498949082        1.2723719193
 C          7.9081318620       -0.8001707310        1.2857486682
 C          8.5694636433       -1.0388641723        0.0901558401
 C          7.9314517730       -0.8277543844       -1.1230245665
 C          6.6207151194       -0.3780077187       -1.1436280040
 H          6.0885824038       -0.1893863600       -2.0622136913
 H          8.4493531389       -1.0105384105       -2.0507672483
 H          9.5896801385       -1.3884786629        0.1039696906
 H          8.4086041906       -0.9618710782        2.2268049724
 H          6.0466026811       -0.1424249044        2.1750354540
 H          4.0443034334       -1.8498525368       -0.1786165967
 H          2.3186979161       -3.1365541916       -1.1018716213
 H         -0.0251993074       -3.1982387314       -1.8708523263
 H         -1.4944983606       -1.2489407740       -1.5299940609
 H         -1.0863449952        1.5431744328       -1.3561785856
 C         -0.3776171489        2.1585087144        0.5631305789
 C          0.5777396349        3.1910799600        0.0463311293
 C         -0.8270879058        3.5778343777        0.3956574175
 H         -0.9942460559        4.1738500753        1.2801828183
 H         -1.5155136972        3.7864226284       -0.4102533035
 H          1.3825134154        3.5143973563        0.6902547075
 H          0.8515098434        3.1409428578       -0.9971941463
 H         -0.2339544682        1.7938643494        1.5749682358
