  62
        -98.93908574
 C         -2.3538021480       -0.6550775830        0.1227011351
 C         -2.6203086828        0.7391988142        0.1750321213
 C         -3.8849386776        1.1902153467       -0.4184689923
 C         -4.7024589469        0.2833416509       -0.9831862073
 C         -6.0432444587        0.5892067398       -1.5838479876
 C         -7.1633807124        0.4523788189       -0.5432037366
 C         -6.8797905126        1.1845425455        0.7683340787
 H         -7.7496431024        1.0449566619        1.4137842180
 H         -6.0311068545        0.7094172720        1.2657573475
 C         -6.5968752464        2.6848746734        0.6091859481
 H         -6.9537939946        3.0286282745       -0.3622691961
 H         -7.1569604332        3.2296739765        1.3720554154
 C         -5.1265787267        3.0742638978        0.7746624214
 H         -4.7371034614        2.6513971529        1.7043368948
 H         -5.0706010478        4.1626067509        0.8627270385
 C         -4.1927276206        2.6604732246       -0.3699389364
 H         -4.6060712571        2.9984334735       -1.3225112158
 H         -3.2330072013        3.1621115677       -0.2143533476
 H         -8.0889113132        0.8309656094       -0.9806705453
 H         -7.3008544486       -0.6080390779       -0.3201002417
 H         -6.0305817511        1.5989804922       -1.9893635169
 H         -6.2250360568       -0.1172727344       -2.3953342086
 O         -4.4117720908       -1.0392060942       -1.0275645830
 C         -3.2430577836       -1.5471930570       -0.4777387296
 O         -3.1414292501       -2.7836702019       -0.5992359619
 H          1.2884515694        0.2133209354        0.5099618968
 C          1.1842809781       -0.5594618289       -0.2380321542
 C          0.0319199084       -1.3300995781       -0.2865945649
 C         -0.0821907838       -2.3038358379       -1.2738370040
 C          0.9404370654       -2.4984796782       -2.1838104152
 C          2.0998179102       -1.7459909428       -2.1164717074
 C          2.2202542376       -0.7660520579       -1.1384131766
 N          3.3751185900        0.0277273463       -1.0545724624
 S          3.9170389017        0.4850879572        0.4782259488
 O          3.8092198663       -0.6293333947        1.3925643071
 O          3.2446054102        1.6986473243        0.8688217038
 C          5.6301690932        0.8328831808        0.1259361380
 C          5.9645341008        2.0678450761       -0.3969863277
 C          7.2912618339        2.3296598222       -0.6999639366
 C          8.2556500697        1.3577189730       -0.4777362413
 C          7.9050534422        0.1236165527        0.0488646892
 C          6.5798623008       -0.1452305132        0.3534860294
 H          6.2620569270       -1.0862676132        0.7729482427
 H          8.6574247174       -0.6284461540        0.2236851525
 H          9.2875224812        1.5646416593       -0.7136785956
 H          7.5679409492        3.2890383442       -1.1065045217
 H          5.1819997631        2.7942401784       -0.5431012040
 H          4.1295468278       -0.3118050965       -1.6354350734
 H          2.9025247115       -1.9105000561       -2.8192952647
 H          0.8390895197       -3.2556572010       -2.9467395988
 H         -0.9807504239       -2.8991226740       -1.3222376950
 C         -1.0492352473       -1.1184781003        0.7471019730
 H         -0.7261650157       -0.2853288888        1.3872319987
 C         -1.1873114252       -2.3572789957        1.6123588078
 C         -0.0834039440       -2.6884259719        2.5701265172
 C         -1.4054284324       -2.2064978501        3.0862083027
 H         -2.0524868710       -2.9117560458        3.5859073730
 H         -1.4616091669       -1.2034458677        3.4841438464
 H          0.1772239743       -3.7255958790        2.7152452833
 H          0.7612412422       -2.0153985204        2.6127041956
 H         -1.6859474602       -3.1780121264        1.1137565803
 O         -1.8336124820        1.5715174127        0.7034046468
