  62
        -98.93505109
 C         -2.0604754194       -1.1970111596        0.3095031503
 C         -2.7624157591       -0.4254386995        1.2711373305
 C         -4.0862373990        0.0630650210        0.8752426207
 C         -4.5602764193       -0.2221084088       -0.3509685192
 C         -5.9008439692        0.1848516817       -0.8996760590
 C         -5.9315111189        1.6035806518       -1.4843796288
 C         -5.8864033584        2.7331647316       -0.4545152687
 H         -6.1352986282        3.6567488518       -0.9809767986
 H         -6.6590092784        2.5692466318        0.2974005214
 C         -4.5252233983        2.9099051912        0.2330339911
 H         -3.7538780985        2.3986154410       -0.3480549391
 H         -4.2606859480        3.9697537411        0.2502684212
 C         -4.4734580882        2.4067598810        1.6757360910
 H         -5.1460896379        3.0032463711        2.2961773112
 H         -3.4564661081        2.5474293607        2.0509667009
 C         -4.8396387786        0.9261484611        1.8420045509
 H         -5.9134478687        0.7885441814        1.7169040911
 H         -4.5618606885        0.6160390309        2.8524003809
 H         -6.8570250090        1.7000512121       -2.0567015287
 H         -5.0972355490        1.7125950316       -2.1813292489
 H         -6.1367735496       -0.5213725982       -1.6985707590
 H         -6.6586037891        0.0946217118       -0.1208027089
 O         -3.8543436196       -0.9517856589       -1.2511524494
 C         -2.5858460297       -1.4445698693       -0.9604115397
 O         -2.0687512200       -2.0660555193       -1.9033308298
 O         -2.3021348888       -0.1598271097        2.4152338804
 C         -0.6804660995       -1.7056245200        0.7097672100
 C          0.3617543505       -1.0952916402       -0.1933155101
 C          0.8159857702       -1.6340842002       -1.3913973502
 C          1.7452614202       -0.9555205904       -2.1624535103
 C          2.2434458307        0.2717204294       -1.7679666102
 C          1.7934526210        0.8265012594       -0.5768685701
 C          0.8709846409        0.1404644596        0.1978910000
 H          0.5198388912        0.5845095496        1.1208638701
 N          2.2977199214        2.0711889592       -0.1586073200
 S          3.9611662015        2.2660063187       -0.1939262303
 O          4.2510439119        3.2546502985        0.8206771698
 O          4.3818399914        2.5961174888       -1.5326451803
 C          4.6129149411        0.6717881485        0.2720974295
 C          4.3064986411        0.1900574285        1.5296032395
 C          4.7551341508       -1.0688261617        1.8932767992
 C          5.4980679805       -1.8218294018        0.9966571790
 C          5.8027039404       -1.3217059418       -0.2595668409
 C          5.3543467007       -0.0636418516       -0.6295786007
 H          5.5652067007        0.3612047684       -1.5973493607
 H          6.3825729602       -1.9085849119       -0.9534486111
 H          5.8410575502       -2.8041637520        1.2805781489
 H          4.5189786809       -1.4594870818        2.8700275492
 H          3.7316224314        0.8031903385        2.2051490696
 H          1.9117752317        2.3944353292        0.7163499901
 H          2.9586694107        0.8137546893       -2.3651223203
 H          2.0802205300       -1.3907712004       -3.0916792904
 H          0.4209298498       -2.5662420801       -1.7520121003
 H         -0.5250146392       -1.2546384702        1.7024825500
 C         -0.6674102399       -3.2076881200        0.9632123898
 C         -0.7755672704       -4.2842255999       -0.0730607703
 C          0.5092829398       -4.0904504603        0.6741363996
 H          0.7850763397       -4.8288952705        1.4120724694
 H          1.3460941298       -3.6575505305        0.1492166595
 H         -1.3835081506       -5.1441190797        0.1719392397
 H         -0.8482270905       -3.9991027698       -1.1089122702
 H         -1.1996120698       -3.4188855000        1.8879592999
