  62
        -98.93631868
 C          1.7598386112        1.2278857576        0.3377198106
 C          2.4762573870        0.6077164900       -0.7110311663
 C          3.6564820437       -0.1901135960       -0.3213779229
 C          3.9782426407       -0.2905577212        0.9807266599
 C          5.1247560390       -1.0360165351        1.6158570624
 C          6.4959652035       -0.8911225821        0.9378551132
 C          6.9687659470       -2.1700399523        0.2448646863
 H          8.0582391165       -2.1451799087        0.1706924675
 H          6.7048488925       -3.0237072197        0.8727364520
 C          6.4153858913       -2.3878091780       -1.1624683656
 H          6.8841026907       -1.6789640385       -1.8485277612
 H          6.7093076118       -3.3906316223       -1.4813991562
 C          4.8968284236       -2.2563021873       -1.2980463690
 H          4.5927063235       -2.8098622619       -2.1891156039
 H          4.3948609749       -2.7218610277       -0.4505227480
 C          4.4160676524       -0.8069853312       -1.4639722945
 H          3.7295636882       -0.7439626210       -2.3143252729
 H          5.2625481299       -0.1604597480       -1.7136098173
 H          6.4742264601       -0.0632723696        0.2308198917
 H          7.2242659081       -0.6376828554        1.7098844129
 H          5.1752184257       -0.6591471221        2.6399841240
 H          4.8560193578       -2.0929682371        1.6867260953
 O          3.2313058700        0.2941091006        1.9619956474
 C          2.1130503428        1.0541645531        1.6741572466
 O          1.5235972215        1.5076155763        2.6769447756
 O          2.1507609889        0.7107031195       -1.9223224928
 C          0.5428243941        2.0821427346        0.0302824303
 C         -0.5171470265        1.2448028578       -0.6441627516
 C         -1.1708051156        1.6221577121       -1.8090018854
 C         -2.1329775615        0.7995196494       -2.3708564316
 C         -2.4720171798       -0.4035734283       -1.7812431557
 C         -1.8383131022       -0.7805712987       -0.6031081134
 C         -0.8754429241        0.0437815870       -0.0428464683
 H         -0.3803062905       -0.2521155195        0.8743109247
 N         -2.1935658818       -1.9901219894        0.0182569759
 S         -3.8243988352       -2.3390237999        0.1621623387
 O         -3.9311208057       -3.1793950573        1.3343730391
 O         -4.3069093213       -2.9146641905       -1.0684861023
 C         -4.6185748384       -0.7658094682        0.4428030514
 C         -5.5590407538       -0.2982091161       -0.4521957464
 C         -6.1391664208        0.9403284839       -0.2289457608
 C         -5.7670620963        1.6876507825        0.8774268147
 C         -4.8229448081        1.2025126457        1.7697240693
 C         -4.2416660921       -0.0359881140        1.5528614626
 H         -3.5075917529       -0.4414922186        2.2311197459
 H         -4.5335876733        1.7843554340        2.6302525949
 H         -6.2146776705        2.6539644767        1.0479391654
 H         -6.8751160553        1.3192097951       -0.9195162944
 H         -5.8160989647       -0.9106286989       -1.3009898472
 H         -1.7014436271       -2.1687250449        0.8809286315
 H         -3.2069849965       -1.0617335356       -2.2154083381
 H         -2.6236580345        1.0990728152       -3.2841036191
 H         -0.9202864968        2.5553552284       -2.2851100653
 H          0.1476449054        2.4033581228        1.0051875912
 C          0.9457666688        3.3093564431       -0.7595080317
 C          0.1391728046        4.5678882553       -0.6570628417
 C          1.4948466595        4.4929947340       -0.0232432230
 H          2.3070781127        5.0467843784       -0.4696622218
 H          1.5562084255        4.4227853327        1.0533121066
 H          0.0216201163        5.1786520426       -1.5393231157
 H         -0.7235127948        4.5572004746       -0.0084864405
 H          1.3956075945        3.0617878654       -1.7137787905
