  62
        -98.93906720
 C         -2.4711966700       -1.0193267177        0.3902174732
 C         -2.7051854792        0.1687592762        1.1324922411
 C         -4.0058643545        0.8205418989        0.9369196377
 C         -4.8992640377        0.2603182326        0.1016648140
 C         -6.2424884214        0.8385589330       -0.2349173392
 C         -6.1617258076        1.7486232618       -1.4685153232
 C         -5.0316939672        2.7762387132       -1.4049314555
 H         -4.0722116386        2.2541225852       -1.4297146187
 H         -5.0909229843        3.3816413847       -2.3119708268
 C         -5.0763605818        3.6932621035       -0.1746446471
 H         -4.8950408168        4.7207761980       -0.4967590430
 H         -6.0702357109        3.6646773452        0.2733543570
 C         -4.0303693590        3.3716685344        0.8946025862
 H         -4.0042077832        4.2015339974        1.6059932056
 H         -3.0412699277        3.3058170395        0.4336441212
 C         -4.2715034478        2.0881027391        1.6991953282
 H         -3.5695957361        2.0851600147        2.5383951240
 H         -5.2870053853        2.0902632591        2.1007031351
 H         -7.1177922554        2.2630032370       -1.5807402157
 H         -6.0056701479        1.1231337586       -2.3503251292
 H         -6.6142910637        1.3994730116        0.6202814422
 H         -6.9277279058        0.0157916503       -0.4451311899
 O         -4.6532055676       -0.8888250630       -0.5726757441
 C         -3.4388177219       -1.5518433169       -0.4625905524
 O         -3.3758023168       -2.5803170438       -1.1638654291
 O         -1.8621102023        0.6593899118        1.9321885196
 C         -1.1180819805       -1.6824834318        0.5806063743
 C         -0.1659341890       -1.3504445902       -0.5442273315
 C         -0.3866315519       -1.7954452899       -1.8440014188
 C          0.5198788124       -1.5012561259       -2.8457429715
 C          1.6681060248       -0.7792490160       -2.5711467998
 C          1.8926057368       -0.3219103257       -1.2781006050
 C          0.9720330736       -0.6030497113       -0.2779229105
 H          1.1551631767       -0.2325408283        0.7205054794
 N          3.0355390265        0.4330018992       -0.9706134725
 S          3.7518891261        0.2123634910        0.5430740687
 O          3.7716794436       -1.1935447081        0.8784499715
 O          3.1133509581        1.0876912506        1.4935352387
 C          5.4055422327        0.7903987101        0.2092661502
 C          5.6622601128        2.1472481471        0.2677438086
 C          6.9397572598        2.5999861716       -0.0213789847
 C          7.9332345943        1.6941756936       -0.3626867460
 C          7.6611627146        0.3352932881       -0.4148292034
 C          6.3853696321       -0.1243037366       -0.1280905788
 H          6.1299279832       -1.1716364006       -0.1464613608
 H          8.4366106660       -0.3664817377       -0.6764405332
 H          8.9267687716        2.0494415676       -0.5860229024
 H          7.1557579497        3.6553197607        0.0215492100
 H          4.8611847262        2.8115145300        0.5476420919
 H          3.7185616133        0.4367333451       -1.7158169763
 H          2.3811826258       -0.5643348759       -3.3526106023
 H          0.3367046685       -1.8505908570       -3.8507763940
 H         -1.2781733966       -2.3636089130       -2.0596122326
 H         -0.7071635672       -1.2342305654        1.4962950955
 C         -1.1940671184       -3.1843445386        0.7800650789
 C         -0.0058284474       -3.8903527991        1.3589158365
 C         -1.2572124921       -3.7387473940        2.1697679618
 H         -1.8656108465       -4.6126353340        2.3482703531
 H         -1.2510985668       -3.0352180167        2.9898729054
 H          0.2455843263       -4.8693416715        0.9806456202
 H          0.8526037052       -3.2893752270        1.6235298893
 H         -1.7606001218       -3.6946601345        0.0123723247
