  62
        -98.94493224
 C          2.1971812536        0.9506235397        0.5440407067
 C          2.3490751027        0.1611832046       -0.6218301083
 C          3.1538799869       -1.0572275393       -0.4632210390
 C          3.6437241883       -1.3849918896        0.7460688848
 C          4.4635543211       -2.6045258686        1.0699344966
 C          5.9615048230       -2.4451012668        0.7751022184
 C          6.3371478455       -2.4487444422       -0.7072329629
 H          5.9025246719       -3.3255116582       -1.1883260772
 H          7.4226861902       -2.5515051242       -0.7618656738
 C          5.9224486807       -1.1823055051       -1.4692781282
 H          6.7557565867       -0.8395481786       -2.0865958024
 H          5.7019505124       -0.3840371036       -0.7569194612
 C          4.7190065836       -1.3647582102       -2.3943622755
 H          4.9722589054       -2.0658375903       -3.1926525224
 H          4.4893654472       -0.3999606461       -2.8534707826
 C          3.4515843591       -1.8659689789       -1.6894050736
 H          3.5536454793       -2.9209984114       -1.4352117305
 H          2.6068563399       -1.7522314103       -2.3737705522
 H          6.4783064659       -3.2758544380        1.2610147309
 H          6.3114477404       -1.5194781333        1.2377788147
 H          4.3405092747       -2.7867590008        2.1398325301
 H          4.0726763070       -3.4642313237        0.5246572341
 O          3.4221366712       -0.6293090006        1.8553084858
 C          2.7118825602        0.5588686927        1.7789606815
 O          2.5967791926        1.1588892192        2.8679418393
 H         -0.1994868769        0.4397427567        1.5443416774
 C         -0.7001802267        0.9728703822        0.7442693225
 C         -0.0088715756        1.9683929914        0.0641248995
 C         -0.6600802030        2.6452235331       -0.9578803482
 C         -1.9626010030        2.3179119383       -1.2944647779
 C         -2.6446355683        1.3237851735       -0.6179044510
 C         -2.0045415386        0.6442031133        0.4107348798
 N         -2.6942803780       -0.3551755873        1.1207896811
 S         -3.4635129672       -1.5637503857        0.2424610450
 O         -3.5384480979       -2.6926904877        1.1448921435
 O         -2.8143947489       -1.7975696778       -1.0266351517
 C         -5.1036599242       -0.9195629915       -0.0147050917
 C         -5.6064394989       -0.8065107692       -1.2960479527
 C         -6.8880547166       -0.3075515406       -1.4710837462
 C         -7.6398713345        0.0662665588       -0.3677528272
 C         -7.1212074469       -0.0565327161        0.9127889379
 C         -5.8414159997       -0.5556432429        1.0948229859
 H         -5.4028151412       -0.6713612365        2.0718748861
 H         -7.7089816494        0.2346147649        1.7683962705
 H         -8.6361355528        0.4553929348       -0.5066936677
 H         -7.2929733305       -0.2122090683       -2.4657620551
 H         -4.9825412998       -1.1048945616       -2.1236656877
 H         -2.1536188396       -0.7597023804        1.8719013711
 H         -3.6569575599        1.0641993993       -0.8807795362
 H         -2.4540677650        2.8460413159       -2.0972153499
 H         -0.1450801289        3.4210862203       -1.4996636975
 C          1.4141280059        2.2504057895        0.4829942957
 H          1.3930183436        2.6405062731        1.5112205753
 C          2.1256900355        3.2501478662       -0.4039257363
 C          1.9592150179        4.7201525313       -0.1667334664
 C          3.2555536462        4.0486455217        0.1708251711
 H          4.1173386692        4.2439067813       -0.4495959014
 H          3.4957378286        3.8887024784        1.2122194260
 H          1.3206382566        5.0256175587        0.6481550007
 H          1.9337525551        5.3807745112       -1.0200820373
 H          2.2286081139        2.9016221913       -1.4250034260
 O          1.8434199365        0.4553130044       -1.7355177920
