  62
        -98.94713644
 C          1.6352578504        1.5259174201       -0.2465427833
 C          2.8318375329        1.2261909435        0.4532348661
 C          3.6176192809        0.0975217035       -0.0607296303
 C          3.1715884657       -0.5792058644       -1.1346414370
 C          3.8444302763       -1.7814809965       -1.7304653617
 C          3.3240479867       -3.0875167865       -1.1129240228
 C          3.2748966595       -3.0736241544        0.4147376656
 H          2.5423155106       -2.3330182518        0.7439342535
 H          2.9141868133       -4.0526474026        0.7374832511
 C          4.6244871136       -2.7865475450        1.0878314165
 H          5.4360643022       -2.9574265039        0.3794099930
 H          4.7613359867       -3.4897497605        1.9120096589
 C          4.7559538279       -1.3810795493        1.6770409605
 H          3.8953974751       -1.1689664920        2.3164431377
 H          5.6468631041       -1.3601727042        2.3104228660
 C          4.8922564633       -0.2421466158        0.6586263512
 H          5.1779193642        0.6608812910        1.2059670978
 H          5.6866974470       -0.4771024587       -0.0527115859
 H          3.9643356282       -3.9047105262       -1.4501767918
 H          2.3155208689       -3.2730855820       -1.4885256240
 H          3.6432469814       -1.7915252156       -2.8032026653
 H          4.9186933456       -1.6992645890       -1.5757854706
 O          2.0236117047       -0.2598477614       -1.7830143545
 C          1.2233456596        0.7929698543       -1.3592221315
 O          0.2042878362        0.9605684855       -2.0556661451
 H         -1.6733203503        2.2771396900       -0.9132573929
 C         -1.6329652108        1.8697483906        0.0841157140
 C         -0.4838832478        2.0166002375        0.8451406762
 C         -0.4529016254        1.4580528072        2.1203221994
 C         -1.5441557699        0.7713237905        2.6188133247
 C         -2.6808184031        0.6042692667        1.8464171181
 C         -2.7146188859        1.1476332427        0.5693683023
 N         -3.8408306858        0.9256950292       -0.2451624182
 S         -4.3776596267       -0.6588326335       -0.3344304550
 O         -4.9505748482       -0.7996613738       -1.6552504102
 O         -5.2795502518       -0.9166185339        0.7621698080
 C         -2.9293708302       -1.6910842546       -0.1621061078
 C         -1.8452298761       -1.4685211390       -0.9872416726
 C         -0.7218223819       -2.2665308829       -0.8447591896
 C         -0.6998976734       -3.2714415839        0.1092511997
 C         -1.7996719772       -3.4869510934        0.9253187170
 C         -2.9243999678       -2.6892048841        0.7917404148
 H         -3.7972272736       -2.8155322825        1.4116670124
 H         -1.7811141497       -4.2694197888        1.6667216870
 H          0.1800632584       -3.8862520363        0.2171515149
 H          0.1322835976       -2.0799572299       -1.4769756839
 H         -1.8599319079       -0.6756471111       -1.7183513239
 H         -3.7453948963        1.3179231318       -1.1711941091
 H         -3.5355243792        0.0553011405        2.2076293185
 H         -1.5074689273        0.3504659777        3.6119609023
 H          0.4475128718        1.5569149020        2.7102678295
 C          0.7634204907        2.6528901545        0.2853980546
 H          1.3303889270        3.0938431019        1.1157651039
 C          0.5024313067        3.7250468015       -0.7505243754
 C         -0.0591895863        5.0437122624       -0.3124351399
 C          1.3646426409        4.9500582953       -0.7697001376
 H          1.6296661086        5.3778213135       -1.7250488969
 H          2.1461418518        5.0235641889       -0.0277618283
 H         -0.2454836051        5.1788498946        0.7422520555
 H         -0.7737873615        5.5394708679       -0.9516341215
 H          0.1860785375        3.3332079138       -1.7093923335
 O          3.2238588653        1.8753665256        1.4587355092
