  62
        -98.94443099
 C          2.1529210641        0.9399599100       -0.4233924990
 C          3.1761078543        1.1753029357        0.5265102923
 C          4.4586118061        0.5082382394        0.2690943176
 C          4.5901616387       -0.2629572811       -0.8258087050
 C          5.8201913870       -1.0476970222       -1.1770764314
 C          5.7584735628       -2.4663102750       -0.5935666244
 C          5.3865676261       -2.5094316673        0.8886007948
 H          4.3597897610       -2.1559642606        1.0084086793
 H          5.4026207735       -3.5570410106        1.1970668489
 C          6.3141291246       -1.6935034071        1.7999581385
 H          6.5549168099       -2.2926991355        2.6806205812
 H          7.2520303993       -1.4861576013        1.2834868731
 C          5.7131631884       -0.3806603150        2.3053501993
 H          4.7302303826       -0.5727320772        2.7427836841
 H          6.3562052368        0.0030503556        3.1018945023
 C          5.5664710010        0.7320133568        1.2597365722
 H          5.3121407072        1.6542123236        1.7903219987
 H          6.5182719516        0.8825185169        0.7464707538
 H          5.0115341593       -3.0372799886       -1.1500912095
 H          6.7294155385       -2.9427302738       -0.7410578163
 H          5.8870412475       -1.1144901250       -2.2642840289
 H          6.6980590290       -0.5264196519       -0.8002544304
 O          3.5892614249       -0.4553264294       -1.7221661753
 C          2.3433395456        0.1284439687       -1.5416408894
 O          1.5166632008       -0.1433876159       -2.4328286303
 O          3.0221167760        1.9061150568        1.5415172024
 C          0.7942194107        1.5827663243       -0.2033614146
 C         -0.2379266178        0.4985109601       -0.0198585823
 C         -0.1047702545       -0.3683046125        1.0625875765
 C         -1.0021609419       -1.3994927539        1.2596495664
 C         -2.0567921482       -1.5884907356        0.3830642159
 C         -2.2057185885       -0.7232123955       -0.6917464254
 C         -1.3062781641        0.3192224230       -0.8830691067
 H         -1.4331827537        0.9757049933       -1.7291439144
 N         -3.2810041574       -0.9010967397       -1.5756820171
 S         -4.7897421733       -1.2336889368       -0.9382480584
 O         -4.8881491867       -2.6351925595       -0.6140605834
 O         -5.7316100959       -0.7469478621       -1.9216879186
 C         -4.8845549559       -0.2611243023        0.5553427705
 C         -4.7653957967        1.1104959222        0.4477461047
 C         -4.8008804234        1.8785578306        1.5998910244
 C         -4.9526265225        1.2652947507        2.8342935656
 C         -5.0767619763       -0.1120755441        2.9251622269
 C         -5.0409918070       -0.8854756179        1.7757750741
 H         -5.1312731082       -1.9592589226        1.8014981301
 H         -5.1969640075       -0.5861555522        3.8859556878
 H         -4.9749011705        1.8657405345        3.7300167703
 H         -4.7068856815        2.9504981093        1.5320105299
 H         -4.6538752567        1.5573848823       -0.5269592486
 H         -3.3250859388       -0.2229254910       -2.3211624875
 H         -2.7551655915       -2.3999209454        0.5080262786
 H         -0.8802181803       -2.0664441920        2.0995806656
 H          0.7226032271       -0.2241869803        1.7438682147
 H          0.8847979855        2.1323641068        0.7444296575
 C          0.4741401821        2.5667908837       -1.3076317067
 C         -0.5205815388        3.6615688321       -1.0654921153
 C          0.9386862036        3.9848107831       -1.1737469433
 H          1.2918140817        4.4960008460       -2.0568529234
 H          1.4742283412        4.2498047740       -0.2739879053
 H         -1.1714546037        3.9577546139       -1.8743227432
 H         -0.9772848798        3.7108230273       -0.0888595269
 H          0.5190443367        2.1217496311       -2.2952457730
