  62
        -98.93070658
 C         -2.2714420033        0.1311220058        0.4276061434
 C         -3.4971297572        0.1339396224        1.1393744194
 C         -4.7072863890        0.4777834061        0.3750653763
 C         -4.5920821237        0.8043006206       -0.9232313955
 C         -5.6748160445        1.2197720574       -1.8877400704
 C         -7.0014543892        0.4500569600       -1.8379430502
 C         -6.8750671242       -1.0380805957       -1.4801642712
 H         -7.4100267483       -1.6293143141       -2.2256781706
 H         -5.8278483279       -1.3438757853       -1.5137390845
 C         -7.4610873521       -1.3738724031       -0.1066146361
 H         -7.6747052040       -2.4447733126       -0.0680926487
 H         -8.4109002949       -0.8468724439        0.0070123246
 C         -6.5637286013       -1.0487670666        1.0869804147
 H         -5.7137998971       -1.7366290863        1.1104248643
 H         -7.1397789034       -1.2236130964        1.9988178853
 C         -6.0050765635        0.3829951660        1.1247168514
 H         -6.7350160329        1.1009700300        0.7592473294
 H         -5.7689671541        0.6236425003        2.1648952053
 H         -7.6748925048        0.9293580658       -1.1289344254
 H         -7.4601175818        0.5499539013       -2.8231296571
 H         -5.8731556378        2.2849147269       -1.7369108606
 H         -5.2267059396        1.1142325892       -2.8786861524
 O         -3.3865817213        0.8355257754       -1.5580050733
 C         -2.2015670815        0.5053117529       -0.9138639494
 O         -1.1946762363        0.5933678310       -1.6405205833
 O         -3.5762399269       -0.1270968964        2.3693717174
 C         -1.0160363300       -0.2376414162        1.1952374824
 C          0.0911523692        0.7468419754        0.9169867318
 C         -0.1104222235        2.0870667458        1.2403120440
 C          0.8771568784        3.0253834871        1.0160493030
 C          2.0985960215        2.6447829208        0.4878086972
 C          2.3084648114        1.3119185663        0.1586561536
 C          1.3063664504        0.3740338792        0.3675529120
 H          1.4936233479       -0.6474205966        0.0809541260
 N          3.5281249828        0.8907141106       -0.3940459476
 S          4.1254903572       -0.6200943879        0.0623966694
 O          3.5942401564       -1.6270307584       -0.8214160154
 O          3.9044239213       -0.8313773098        1.4755638407
 C          5.8658205081       -0.3946908000       -0.2595267429
 C          6.3426022020       -0.6045960759       -1.5397257296
 C          7.6893376161       -0.3995308517       -1.7947077830
 C          8.5319164791        0.0108513196       -0.7722053262
 C          8.0393123165        0.2163065582        0.5078369432
 C          6.6934632447        0.0137454168        0.7696288334
 H          6.2681586607        0.1510461951        1.7508425238
 H          8.6973456202        0.5317864865        1.3014128298
 H          9.5797239334        0.1684437340       -0.9734917708
 H          8.0763512104       -0.5612100271       -2.7878266707
 H          5.6517610761       -0.9316163724       -2.2994437352
 H          4.2429043419        1.6046697597       -0.3708428107
 H          2.8758688185        3.3750475071        0.3206881728
 H          0.7014216848        4.0610775003        1.2658636101
 H         -1.0608181810        2.3824296963        1.6648120215
 H         -1.3026294270       -0.1257205240        2.2554628186
 C         -0.5825392843       -1.6850984675        1.0185409760
 C         -1.5789350867       -2.7648006719        0.7237034156
 C         -0.5792139808       -2.3635916995       -0.3171069867
 H          0.2344752207       -3.0378569214       -0.5437782554
 H         -0.9169974421       -1.7925943341       -1.1678659738
 H         -1.4615293016       -3.7200310749        1.2128559369
 H         -2.6081888118       -2.4686842530        0.5812075738
 H          0.2264580220       -1.9493045984        1.6946446946
