  62
        -98.94451902
 C         -1.2914879902       -1.7574586300       -0.6984978700
 C         -2.4905299702       -1.6308513801        0.0502118500
 C         -3.4048548003       -0.5599283802       -0.3544858700
 C         -3.0999563604        0.2068350999       -1.4164593100
 C         -3.9030816105        1.3689581399       -1.9321398399
 C         -3.5974083306        2.6806512998       -1.1950752199
 C         -4.1776260706        2.7793749397        0.2165931401
 H         -4.0961156307        3.8244082997        0.5224908402
 H         -5.2385951206        2.5263430797        0.1935119801
 C         -3.4584704305        1.9079186797        1.2562703101
 H         -2.4739030305        1.6247469498        0.8735787901
 H         -3.2836916306        2.4944343797        2.1618397901
 C         -4.2243527704        0.6512908897        1.6736536400
 H         -3.6000632204        0.0899280297        2.3738505700
 H         -5.1408945505        0.9396670496        2.1938847100
 C         -4.5936073904       -0.2846848603        0.5152241800
 H         -5.4057653604        0.1432306097       -0.0718756500
 H         -4.9266695303       -1.2362958804        0.9370161799
 H         -2.5125245706        2.8103877399       -1.1471608798
 H         -4.0067706106        3.4982281898       -1.7935572998
 H         -3.6369072505        1.4933837099       -2.9840192499
 H         -4.9684242004        1.1470746398       -1.8644742399
 O         -1.9880203604       -0.0002181200       -2.1635625800
 C         -1.0198699803       -0.9272984299       -1.7866994600
 O         -0.0116690403       -0.9055923698       -2.5167263100
 O         -2.7719366302       -2.3772245502        1.0268220599
 C         -0.2691986102       -2.7326237899       -0.1403683401
 C          0.4380167698       -2.0853792099        1.0282484100
 C          0.7848907798       -2.8054228900        2.1651590799
 C          1.4076959598       -2.1745724200        3.2284765400
 C          1.6797453497       -0.8189280899        3.1885949800
 C          1.3195253496       -0.0850096699        2.0622086301
 C          0.7260530697       -0.7295762099        0.9881527400
 H          0.4405525196       -0.1528327599        0.1247015001
 N          1.5136030995        1.2964793101        2.0162005201
 S          1.4881134794        2.2221153402        0.6315766802
 O          1.8288491393        3.5461733002        1.1080806102
 O          0.2215445695        2.1011613901       -0.0447599998
 C          2.8375171595        1.6085222803       -0.3595663598
 C          2.6213976796        0.8425182404       -1.4857618599
 C          3.7196502496        0.3825092505       -2.1984504599
 C          5.0030004896        0.6886114906       -1.7769300799
 C          5.2031588495        1.4625521405       -0.6429518398
 C          4.1126777195        1.9266364804        0.0718594602
 H          4.2230898694        2.5473030304        0.9460879902
 H          6.2020126095        1.7043870806       -0.3173469898
 H          5.8502407196        0.3245544807       -2.3362966399
 H          3.5530980997       -0.2171199995       -3.0788823199
 H          1.6185033496        0.6005229103       -1.8027338499
 H          2.0400313195        1.7074261101        2.7701668702
 H          2.1445205096       -0.3254861099        4.0280124801
 H          1.6733123398       -2.7430985600        4.1067528999
 H          0.5405434399       -3.8556079000        2.2256514899
 H         -0.8548961501       -3.5758128100        0.2610675099
 C          0.6951399899       -3.2917633498       -1.1737364601
 C          2.1113896699       -2.8247171097       -1.2976364901
 C          1.8217215900       -4.1921074397       -0.7602205401
 H          2.0453754900       -5.0482073197       -1.3784256602
 H          1.9749466400       -4.3555406598        0.2950572599
 H          2.5202862299       -2.7280991896       -2.2909715500
 H          2.4554939498       -2.0649378297       -0.6122343100
 H          0.1898165099       -3.5404263798       -2.1007846901
