  62
        -98.93297740
 C         -2.2590424388       -1.2781306700       -0.0327308395
 C         -3.2680736384       -0.9741343178        0.9188300034
 C         -4.3937997754       -0.1522292537        0.4531045527
 C         -4.4123354310        0.2605093173       -0.8268390591
 C         -5.4441349795        1.1642203218       -1.4396103809
 C         -5.1914880385        2.6227503685       -1.0071948364
 C         -6.2928788737        3.2199524337       -0.1310555229
 H         -7.1525950421        3.4631536877       -0.7589240288
 H         -5.9105770844        4.1560846403        0.2813473413
 C         -6.7864729835        2.3340709263        1.0167871912
 H         -7.4842750084        1.5890798758        0.6316375790
 H         -7.3576924612        2.9762925760        1.6904415420
 C         -5.6985311250        1.6158544080        1.8256674169
 H         -5.9911877844        1.6322113146        2.8774029316
 H         -4.7494731328        2.1472916311        1.7522223632
 C         -5.4865248325        0.1389822402        1.4442984869
 H         -6.4280947344       -0.2827376740        1.0817260930
 H         -5.2020277681       -0.4163354134        2.3428302448
 H         -5.0809309707        3.2506104114       -1.8926990605
 H         -4.2390213766        2.6616169769       -0.4741783321
 H         -6.4387499355        0.8423168651       -1.1388852726
 H         -5.3582590155        1.0680549171       -2.5222064909
 O         -3.4280731953       -0.0451666049       -1.7099477680
 C         -2.3309622649       -0.8180710616       -1.3474709955
 O         -1.5261261789       -1.0007538097       -2.2812540332
 O         -3.2305074903       -1.3866152928        2.1087049309
 C         -1.1174042511       -2.1558416731        0.4502577128
 C          0.0872366950       -1.3473813469        0.8558792666
 C          0.6977944096       -1.5417312769        2.0892898836
 C          1.8278198598       -0.8227401520        2.4389657651
 C          2.3765451624        0.0963748894        1.5623047715
 C          1.7720457646        0.2987461162        0.3289149495
 C          0.6334821839       -0.4130501021       -0.0136834390
 H          0.1762710680       -0.2574585487       -0.9803663149
 N          2.3552792263        1.2117612624       -0.5847096505
 S          3.7436993073        0.5944852882       -1.3226771642
 O          3.9390668527        1.3865442880       -2.5169330717
 O          3.6422554741       -0.8357894774       -1.5081369586
 C          5.0309559275        0.9627466860       -0.1504490259
 C          5.6654303912       -0.0665532596        0.5167476796
 C          6.6577858950        0.2422631508        1.4341035904
 C          6.9954782590        1.5669851363        1.6660338550
 C          6.3500874585        2.5889906141        0.9853329236
 C          5.3573232807        2.2873388949        0.0667844337
 H          4.8334457234        3.0475619410       -0.4883764658
 H          6.6167268610        3.6175882471        1.1675617536
 H          7.7671391842        1.8044467829        2.3812244467
 H          7.1610366282       -0.5504614778        1.9638557079
 H          5.3655202204       -1.0803192427        0.3055305353
 H          1.7095731602        1.4811277187       -1.3156900395
 H          3.2569298093        0.6595823957        1.8255285357
 H          2.2882269223       -0.9820442642        3.4017564294
 H          0.2745657659       -2.2581944124        2.7781182651
 H         -1.5103726002       -2.6401994939        1.3581899058
 C         -0.7670659949       -3.2646002593       -0.5350700856
 C          0.5098911000       -3.3295183037       -1.3137944795
 C          0.2765590841       -4.2830811574       -0.1825655548
 H          0.0862253682       -5.3213965922       -0.4078910525
 H          0.8395724168       -4.1213436207        0.7242803968
 H          0.4540040974       -3.6994246292       -2.3268524103
 H          1.2464066229       -2.5499671195       -1.1886190824
 H         -1.6500492204       -3.6350554570       -1.0473879523
