  62
        -98.94358706
 C          1.2045009924        0.9167049053       -0.7006280717
 C          2.2965071992        1.3196711301        0.1087803209
 C          3.1690780475        0.2535588129        0.6146857320
 C          2.8670571828       -1.0265695628        0.3331558791
 C          3.6850230700       -2.2130977552        0.7530682755
 C          4.7288110608       -2.5767831383       -0.3122405899
 C          5.5534292009       -1.3853673684       -0.7994989074
 H          6.2750261940       -1.7647893365       -1.5261245479
 H          4.8968660011       -0.6912584569       -1.3288804745
 C          6.2957548058       -0.6302804419        0.3117916524
 H          6.3614004004       -1.2543120034        1.2038036503
 H          7.3166330710       -0.4316065498       -0.0211515346
 C          5.6782685138        0.7192483345        0.6832496718
 H          5.5242127321        1.3131948926       -0.2210793226
 H          6.3922840655        1.2584768415        1.3114394760
 C          4.3509516737        0.6586295742        1.4500824927
 H          4.4541579788        0.0003855589        2.3157034444
 H          4.1286679727        1.6669715018        1.8119215151
 H          5.3934428239       -3.3372742391        0.1017400862
 H          4.2102275499       -3.0088158966       -1.1711089518
 H          4.1761213239       -1.9905648209        1.6986504476
 H          3.0112655472       -3.0595972671        0.8980605109
 O          1.7968148275       -1.3818279321       -0.4172195224
 C          0.9345530291       -0.4294128350       -0.9540743355
 O          0.0105033169       -0.9217760230       -1.6241904520
 O          2.5343887025        2.5269446345        0.3880967501
 C          0.2950229761        2.0246405247       -1.2051609641
 C         -0.7630754394        2.3166690668       -0.1720531796
 C         -1.0140317493        3.6104812574        0.2677672545
 C         -1.9658788911        3.8446981207        1.2451320488
 C         -2.6777015631        2.7979968855        1.8027495581
 C         -2.4367351600        1.4997738179        1.3644186379
 C         -1.4928039187        1.2711069016        0.3755608078
 H         -1.2991427164        0.2628206791        0.0483222776
 N         -3.1602193747        0.4186101516        1.8792889311
 S         -2.5711025917       -1.1426777044        1.8076790201
 O         -3.4303676467       -1.8781272571        2.7148310157
 O         -1.1584844904       -1.2042257216        2.1104245396
 C         -2.9047083566       -1.6779533849        0.1441733838
 C         -3.9751273107       -1.1379447698       -0.5406945756
 C         -4.2432008472       -1.5881508096       -1.8226750906
 C         -3.4477632246       -2.5709962168       -2.3910312774
 C         -2.3833748927       -3.1088018220       -1.6866972041
 C         -2.1057867593       -2.6582967892       -0.4064746404
 H         -1.2715035934       -3.0346627013        0.1645254439
 H         -1.7578252141       -3.8659961529       -2.1309917077
 H         -3.6549698194       -2.9171523699       -3.3914988073
 H         -5.0675578504       -1.1674863406       -2.3759573215
 H         -4.5706091572       -0.3715753207       -0.0726045936
 H         -3.7240632359        0.6006817903        2.6953048503
 H         -3.4097745406        2.9791717070        2.5745344664
 H         -2.1484162095        4.8526596909        1.5853523739
 H         -0.4431898263        4.4298881472       -0.1434288259
 H          0.9407005040        2.9149769752       -1.2750899955
 C         -0.2796920116        1.7691803562       -2.5901290753
 C         -1.6978608113        1.3610818746       -2.8379482216
 C         -1.2477009411        2.7445894153       -3.1927906353
 H         -1.1383100255        3.0048841779       -4.2345706653
 H         -1.5885086266        3.5550046228       -2.5662053834
 H         -1.8779831286        0.6479525686       -3.6272576045
 H         -2.3493445708        1.2335999248       -1.9879831978
 H          0.4623006746        1.3431103714       -3.2578334414
