  62
        -98.93930313
 C         -2.0217756413       -0.8896909755        0.0244233923
 C         -2.3208979333        0.0890245785        0.9969757716
 C         -2.3691644024        1.4864793435        0.5360597519
 C         -2.1205976332        1.7621103263       -0.7580927707
 C         -2.0269353809        3.0826980525       -1.4946834595
 C         -2.5529854885        4.3702468191       -0.8655086227
 C         -4.0703696389        4.4234262057       -0.6910710288
 H         -4.5312811008        4.4850597847       -1.6799076673
 H         -4.3190854096        5.3382956197       -0.1490868693
 C         -4.6912003955        3.2319908504        0.0335602038
 H         -4.5337382727        2.3239456107       -0.5519457152
 H         -5.7703341205        3.3985510537        0.0875967681
 C         -4.1861545200        2.9973542695        1.4558402075
 H         -4.8220780657        2.2322435201        1.9088309526
 H         -4.2948695593        3.9123911296        2.0410504876
 C         -2.7299667829        2.5127090317        1.5714952366
 H         -2.6114956026        2.0206798033        2.5415994324
 H         -2.0287363091        3.3440147104        1.5447974585
 H         -2.2688159283        5.1830107715       -1.5395176241
 H         -2.0525857951        4.5565950313        0.0802438339
 H         -0.9614140307        3.2123892240       -1.7175959885
 H         -2.5256373960        2.9231883859       -2.4561796635
 O         -1.8437846499        0.7795710274       -1.6650086573
 C         -1.7652305543       -0.5529879646       -1.3032599651
 O         -1.4846572254       -1.3256181106       -2.2402609846
 H          0.3735828301       -0.9872652049        0.8793920128
 C          0.5769050164       -1.9468761404        0.4250448239
 C         -0.4749277783       -2.8072507342        0.1355789888
 C         -0.1844886081       -4.0418038968       -0.4300567568
 C          1.1234620728       -4.3825256012       -0.7303184641
 C          2.1606996252       -3.5016253177       -0.4879249745
 C          1.8819591333       -2.2717038479        0.0987820503
 N          2.9103625934       -1.3549907157        0.3836590064
 S          2.5610655679        0.2931269203        0.2557324750
 O          1.9409784889        0.7318345842        1.4820163330
 O          1.8388375282        0.5691456718       -0.9659647943
 C          4.2159974551        0.9525513762        0.1606342997
 C          4.9423982518        1.0880896519        1.3288162371
 C          6.2415106457        1.5653118468        1.2581018132
 C          6.7900229552        1.8963556264        0.0277701443
 C          6.0483382515        1.7569214821       -1.1356346532
 C          4.7486709817        1.2787475729       -1.0720721455
 H          4.1305902082        1.1598793421       -1.9478124908
 H          6.4755064169        2.0180738142       -2.0903876469
 H          7.8010665987        2.2680656357       -0.0246956039
 H          6.8199927088        1.6775933757        2.1607582461
 H          4.4693262266        0.8264279015        2.2608476182
 H          3.7761038015       -1.5840306399       -0.0863289844
 H          3.1760049119       -3.7588863456       -0.7486996475
 H          1.3350169459       -5.3416387832       -1.1782129567
 H         -0.9831609203       -4.7310460640       -0.6503254621
 C         -1.8759003454       -2.3395762338        0.4475993148
 H         -2.0078508201       -2.3424056707        1.5404538151
 C         -2.9551806281       -3.1971074946       -0.1789800372
 C         -3.4572420835       -4.4198528361        0.5278303334
 C         -4.3223910601       -3.2002751774        0.4343181123
 H         -5.1806855420       -3.2220767596       -0.2201936152
 H         -4.4656892695       -2.6024031257        1.3226387658
 H         -3.0204224854       -4.6573134224        1.4859974494
 H         -3.7261327893       -5.2824939416       -0.0628809254
 H         -2.8907976317       -3.2162206885       -1.2612669968
 O         -2.5286643228       -0.1910686601        2.2104417543
