  62
        -98.94468564
 C          1.9924783769        1.3479220359        0.3369616475
 C          2.6843286286        0.8129233438       -0.7766719512
 C          3.8647384277       -0.0058467946       -0.4622596253
 C          4.2099663578       -0.2023597772        0.8231758370
 C          5.3545772450       -1.0569988101        1.2834218691
 C          4.9019538043       -2.5018172309        1.5367878666
 C          4.0884464353       -3.1042991272        0.3909769624
 H          3.8511280738       -4.1342784424        0.6665840916
 H          3.1393242348       -2.5695810927        0.3050627536
 C          4.8002290472       -3.0900005186       -0.9690850335
 H          4.6638857466       -4.0633085634       -1.4451349568
 H          5.8718087815       -2.9473763195       -0.8247805409
 C          4.2760260494       -2.0380114229       -1.9485166750
 H          4.6888351547       -2.2586230565       -2.9365063625
 H          3.1882510111       -2.1171602459       -2.0245452923
 C          4.6315622056       -0.5827358486       -1.6186415419
 H          5.7070268667       -0.4954323698       -1.4515130721
 H          4.3667578949        0.0273572799       -2.4871506806
 H          5.7868671617       -3.1145687139        1.7176948643
 H          4.2867043439       -2.5193133746        2.4395227224
 H          5.7439953558       -0.6395032122        2.2135026547
 H          6.1405182039       -1.0382404192        0.5311121489
 O          3.5135269924        0.3191505207        1.8656969860
 C          2.3831189785        1.0910548290        1.6505277608
 O          1.8178634196        1.4786638642        2.6941722785
 O          2.3385771990        1.0069980086       -1.9704318248
 C          0.7559614180        2.2035972712        0.1230528449
 C         -0.3089375185        1.3912460709       -0.5738828963
 C         -0.9814915464        1.8143476094       -1.7117823925
 C         -1.9400618973        1.0061527908       -2.3002714541
 C         -2.2571178670       -0.2274071198       -1.7636708490
 C         -1.6057893313       -0.6502403674       -0.6108515321
 C         -0.6458826347        0.1593116795       -0.0246651163
 H         -0.1364088525       -0.1721508007        0.8723981453
 N         -1.9397695301       -1.8907913241       -0.0412438660
 S         -3.5647507008       -2.2719304049        0.0920101291
 O         -3.6545268206       -3.1552757875        1.2336321898
 O         -4.0389484400       -2.8120401109       -1.1578054412
 C         -4.3878153915       -0.7245841411        0.4286408263
 C         -5.3532382211       -0.2558982226       -0.4388214728
 C         -5.9600154852        0.9611415494       -0.1726813123
 C         -5.5890302270        1.6868205573        0.9483379599
 C         -4.6196969166        1.2008318190        1.8125626585
 C         -4.0118774578       -0.0165758111        1.5530023294
 H         -3.2578603848       -0.4217708031        2.2091000074
 H         -4.3312945742        1.7659552872        2.6844055166
 H         -6.0572359269        2.6367873651        1.1521507285
 H         -6.7154782406        1.3404481622       -0.8415084060
 H         -5.6078920468       -0.8508637248       -1.3006946678
 H         -1.4434084768       -2.0980012913        0.8126322231
 H         -2.9886808450       -0.8741766219       -2.2202148103
 H         -2.4452951686        1.3412974772       -3.1929729309
 H         -0.7476070259        2.7715462936       -2.1468359016
 H          0.3851524198        2.4541122219        1.1276560489
 C          1.1170376331        3.4860503575       -0.5955303958
 C          0.2859567245        4.7170640973       -0.3983293117
 C          1.6557216784        4.6333035779        0.2033567483
 H          2.4466372913        5.2320949612       -0.2227807539
 H          1.7406894912        4.4974140523        1.2720158930
 H          0.1370433180        5.3790248284       -1.2378543909
 H         -0.5628236604        4.6461744455        0.2647001570
 H          1.5523272166        3.3094275973       -1.5720048354
