  62
        -98.94968802
 C         -1.1794198951       -1.6536235633       -0.1576981449
 C         -2.2691512078       -1.2441225484        0.6451446246
 C         -3.0587948938       -0.1165233949        0.1324107933
 C         -2.7171042004        0.4453971740       -1.0412821131
 C         -3.4192472456        1.6149763263       -1.6683141240
 C         -2.7970122565        2.9533726139       -1.2461840591
 C         -2.5921096902        3.1029503770        0.2618577728
 H         -1.8269686207        2.4021882194        0.6070658482
 H         -2.1927996860        4.1051576063        0.4367895568
 C         -3.8638274448        2.9084689304        1.0990301484
 H         -3.9005969005        3.6900604643        1.8608808337
 H         -4.7465607977        3.0263128112        0.4688305349
 C         -3.9378516864        1.5688126586        1.8340882358
 H         -3.0000758735        1.3985612591        2.3707084439
 H         -4.7351692951        1.6326307613        2.5798268691
 C         -4.2265197434        0.3425900004        0.9585556901
 H         -5.0951981154        0.5390042272        0.3261188976
 H         -4.4676527672       -0.4916464908        1.6242279420
 H         -1.8255176169        3.0603931718       -1.7342051102
 H         -3.4438801905        3.7575401932       -1.6026622116
 H         -3.3435773830        1.5174891660       -2.7527836262
 H         -4.4700008011        1.5897783245       -1.3853361346
 O         -1.6651935701        0.0216736473       -1.7876143131
 C         -0.8545173489       -1.0209934735       -1.3565691841
 O          0.0941261437       -1.2841076562       -2.1176398473
 O         -2.5718982833       -1.8007853130        1.7363029121
 C         -0.3042935198       -2.7994361034        0.3120708966
 C          1.1197181229       -2.3371500593        0.5031516922
 C          2.2211070964       -3.1008233575        0.1367165723
 C          3.5043901651       -2.6337620907        0.3612613079
 C          3.7174356539       -1.4006773907        0.9490738729
 C          2.6226252670       -0.6321376675        1.3274638763
 C          1.3394687696       -1.1057949231        1.1079885118
 H          0.4982954657       -0.4997548686        1.4117068546
 N          2.7982043354        0.6192089042        1.9471418115
 S          1.9259760505        1.9286278206        1.3835128550
 O          2.6137473629        3.0782467051        1.9334232577
 O          0.5354391544        1.7976917697        1.7366608147
 C          2.1289247999        1.8997470244       -0.3862208443
 C          1.0218254901        1.7558897532       -1.1926410904
 C          1.1881009363        1.7078404682       -2.5668588470
 C          2.4602979733        1.8010600273       -3.1069576268
 C          3.5662763050        1.9539550502       -2.2838945887
 C          3.4030875221        2.0040610592       -0.9097635188
 H          4.2401311585        2.1347289860       -0.2432127080
 H          4.5536691747        2.0294884871       -2.7102180365
 H          2.5889453283        1.7535971570       -4.1767776647
 H          0.3257113585        1.5747093506       -3.2001352796
 H          0.0519174224        1.6746679218       -0.7298739371
 H          3.7643437828        0.8752739894        2.0934796131
 H          4.7186100024       -1.0364120438        1.1215219098
 H          4.3505118503       -3.2367694898        0.0693887602
 H          2.0745148858       -4.0629850141       -0.3255903411
 H         -0.7014567363       -3.0844242851        1.2986436658
 C         -0.4344470379       -3.9833449604       -0.6243792101
 C         -0.3060569167       -5.3822060643       -0.1018150281
 C         -1.6466661083       -4.8575568978       -0.5169142036
 H         -2.0928918763       -5.2350578396       -1.4246386382
 H         -2.3644216646       -4.6151445766        0.2534385918
 H          0.1663396974       -6.1253044606       -0.7264625040
 H         -0.1176298381       -5.5068875181        0.9538763794
 H         -0.0592374004       -3.7687019878       -1.6185893888
