  62
        -98.94477583
 C         -1.9363875271        0.5565320274        0.5907895526
 C         -3.0075776937        1.3187325238        0.0651156719
 C         -4.3464943227        0.7335026276        0.2107275836
 C         -4.4803560055       -0.4542645613        0.8288136730
 C         -5.7777779117       -1.1889018392        1.0005497688
 C         -6.0310477458       -2.1500605772       -0.1692783125
 C         -5.8503738659       -1.5086075175       -1.5450593361
 H         -4.7993079378       -1.2419766748       -1.6777805303
 H         -6.0850443861       -2.2701703525       -2.2918974260
 C         -6.7228203462       -0.2688638028       -1.7869137868
 H         -7.1671529157       -0.3423797278       -2.7817628907
 H         -7.5421190370       -0.2465411294       -1.0674911723
 C         -5.9660568399        1.0596191778       -1.7342385490
 H         -5.0894077756        1.0073040839       -2.3846935164
 H         -6.6213092696        1.8397822699       -2.1306046270
 C         -5.5072079731        1.5120723684       -0.3421506700
 H         -5.1607901845        2.5462378218       -0.4265124486
 H         -6.3516738572        1.4884127112        0.3495283620
 H         -5.3327345860       -2.9862545857       -0.0870693928
 H         -7.0450614616       -2.5439246556       -0.0791001823
 H         -5.7268838490       -1.7636760546        1.9268354392
 H         -6.5901837870       -0.4686932692        1.0756145104
 O         -3.4298074002       -1.1513459404        1.3318484043
 C         -2.1313005259       -0.6741180498        1.2176499989
 O         -1.2666588483       -1.4240034087        1.7086470173
 O         -2.8499934339        2.4338291995       -0.5006446920
 C         -0.5240545789        1.1025233176        0.4638835743
 C          0.3068954047        0.1469923177       -0.3549588738
 C         -0.0834552538       -0.1079108929       -1.6684871965
 C          0.6137905184       -1.0049592045       -2.4523483224
 C          1.7232323582       -1.6608766331       -1.9465407540
 C          2.1234196339       -1.4129158350       -0.6397116669
 C          1.4202497193       -0.5073906723        0.1458088596
 H          1.7421728045       -0.3518656826        1.1610737990
 N          3.2316418007       -2.0838355416       -0.0990166500
 S          4.3840584888       -1.2673611943        0.7923778936
 O          5.4980865808       -2.1865499559        0.8677146876
 O          3.8361951942       -0.8233840454        2.0477242248
 C          4.8211621787        0.1286582413       -0.2276017124
 C          4.1914862237        1.3412006680       -0.0338061400
 C          4.4957421794        2.3949314604       -0.8815292983
 C          5.4167655255        2.2188445093       -1.9024339705
 C          6.0427800285        0.9944625232       -2.0822124784
 C          5.7404885170       -0.0635662877       -1.2408705362
 H          6.2116135065       -1.0282291657       -1.3387436754
 H          6.7616467323        0.8618217010       -2.8746322483
 H          5.6494683859        3.0418893079       -2.5595436388
 H          4.0111100029        3.3480231672       -0.7414318425
 H          3.4835067297        1.4418011684        0.7719334601
 H          3.6693031599       -2.7401027660       -0.7289189888
 H          2.2659223351       -2.3695519067       -2.5535549794
 H          0.2951519014       -1.1958270918       -3.4659899620
 H         -0.9525133740        0.4030669558       -2.0600913190
 H         -0.6278669914        2.0402748591       -0.1013578128
 C          0.0531060815        1.4192654995        1.8261426084
 C          1.1093547892        2.4729904312        1.9650892513
 C         -0.2788162937        2.7321722420        2.4671920874
 H         -0.4488174443        2.7563474739        3.5331531341
 H         -0.9058111396        3.4123129130        1.9092786148
 H          1.8975609611        2.3191934522        2.6875420826
 H          1.4200425463        2.9867336756        1.0676749500
 H          0.1085800171        0.5525043129        2.4753862377
