  62
        -98.93972563
 C         -2.0975896905       -1.3717514883        0.6337008603
 C         -1.9756026597       -0.1067727883        1.2654652403
 C         -3.0110224892        0.8841156823        0.9525153803
 C         -4.0081995694        0.5448393729        0.1156563903
 C         -5.0921224889        1.4738451135       -0.3471756196
 C         -4.6913005585        2.1835560033       -1.6484333196
 C         -3.2943287181        2.8038537725       -1.6100757797
 H         -2.5519607486        2.0060268320       -1.5312046797
 H         -3.1337882379        3.2986647724       -2.5704351697
 C         -3.0781437075        3.8115812023       -0.4723940797
 H         -2.5691955570        4.6895935920       -0.8754719497
 H         -4.0420144873        4.1460464529       -0.0868950396
 C         -2.2225166678        3.2894382518        0.6834342703
 H         -1.9531669472        4.1386048017        1.3168951403
 H         -1.2971735180        2.8602515913        0.2914258703
 C         -2.8870667983        2.2413951422        1.5845733803
 H         -3.8614617281        2.6030855628        1.9189497304
 H         -2.2491608084        2.1056291918        2.4626312603
 H         -5.4303881281        2.9582922537       -1.8608461396
 H         -4.7198832590        1.4551521533       -2.4622081396
 H         -5.9958330892        0.8888623940       -0.5261719996
 H         -5.2939856084        2.2061469836        0.4320761604
 O         -4.1072830201       -0.6816674171       -0.4530359897
 C         -3.1427911707       -1.6632504476       -0.2432479797
 O         -3.3523774413       -2.7099384975       -0.8817843697
 O         -1.0364937195        0.1747193411        2.0576593802
 C         -0.9826927811       -2.3618215989        0.9220648302
 C          0.1789408691       -2.0548559296        0.0114940002
 C          0.0065751491       -1.9850204095       -1.3677241098
 C          1.0700138392       -1.6618461301       -2.1903145798
 C          2.3188573994       -1.3904501008       -1.6576054899
 C          2.4964758294       -1.4389946909       -0.2813866799
 C          1.4291420593       -1.7775318203        0.5420835601
 H          1.5685384093       -1.8047814904        1.6140003201
 N          3.7580964996       -1.1615107217        0.2739800601
 S          4.5676642904        0.2345692678       -0.1701128700
 O          4.9574727803        0.1384485076       -1.5538285300
 O          5.6392373205        0.3626172172        0.7901007300
 C          3.3928082412        1.5579196885        0.0457941901
 C          2.6015526614        1.9503015190       -1.0148563899
 C          1.6721868420        2.9590580095       -0.8173744198
 C          1.5508263324        3.5542409696        0.4286146702
 C          2.3495968222        3.1449906091        1.4850419401
 C          3.2772350316        2.1343112186        1.2952012301
 H          3.9251341014        1.7957928382        2.0878107101
 H          2.2493043725        3.6076129992        2.4536631401
 H          0.8302724129        4.3429143800        0.5773585302
 H          1.0461940621        3.2775369599       -1.6358574298
 H          2.7315205711        1.4731746689       -1.9722038399
 H          3.7883492696       -1.2699721117        1.2776026001
 H          3.1550708295       -1.1342995513       -2.2876827999
 H          0.9262079392       -1.6187537300       -3.2595602498
 H         -0.9708435111       -2.1835386289       -1.7832431398
 H         -0.6609305009       -2.1325844291        1.9507187702
 C         -1.4091775619       -3.8203422087        0.8992566002
 C         -0.9760365725       -4.7972082889       -0.1480963598
 C         -0.4106672626       -4.8888426392        1.2355031602
 H         -0.7176080830       -5.7055077291        1.8710421602
 H          0.6157576276       -4.5824035398        1.3733185802
 H         -1.6959174630       -5.5347106385       -0.4683396398
 H         -0.3295700824       -4.4511380393       -0.9390091798
 H         -2.4126044620       -3.9545128281        1.2888052103
