  62
        -98.94439208
 C         -1.9409584968       -0.8592414752        0.0979596672
 C         -2.3982854160        0.4777706362        0.1808798540
 C         -3.8132824550        0.6464508528        0.5448794590
 C         -4.5667931595       -0.4408268295        0.7907744348
 C         -6.0323423732       -0.4143044440        1.1129754194
 C         -6.8825776191       -0.5227959429       -0.1606172335
 C         -6.4645827784        0.4456872010       -1.2670487205
 H         -5.4671516286        0.1746574764       -1.6207630562
 H         -7.1521064979        0.3006997423       -2.1031893766
 C         -6.4692496722        1.9236065542       -0.8520684123
 H         -7.0668197282        2.0533398527        0.0509548432
 H         -6.9452429675        2.5079128544       -1.6424000944
 C         -5.0799024858        2.5243970243       -0.6299001835
 H         -4.4474136804        2.3170601684       -1.4969570659
 H         -5.1863408827        3.6100851166       -0.5561693079
 C         -4.3414936745        2.0508065465        0.6284777019
 H         -3.4645676352        2.6917903114        0.7602062048
 H         -4.9876082496        2.1693971311        1.5007161665
 H         -7.9263098704       -0.3456077457        0.1050551058
 H         -6.7981437792       -1.5409108738       -0.5474786150
 H         -6.2574570390       -1.2621336647        1.7620936497
 H         -6.2662842990        0.5078077394        1.6413647567
 O         -4.0833711295       -1.7077469914        0.7264153724
 C         -2.7665102961       -1.9496685215        0.3721790022
 O         -2.4534387967       -3.1570494600        0.3444740138
 H          1.5440281236        0.6682558729       -0.7935090314
 C          1.4202782169        0.4254957824        0.2478398824
 C          0.4376382790       -0.4596596594        0.6598437720
 C          0.3046951803       -0.7235664862        2.0215606840
 C          1.1217020780       -0.1026131935        2.9449770573
 C          2.0975047004        0.7874273014        2.5300704225
 C          2.2425416488        1.0546467270        1.1747198297
 N          3.2095751164        1.9711175434        0.7330795918
 S          4.1630370993        1.6491769414       -0.5995961486
 O          5.2351111990        2.6162240940       -0.5164271250
 O          3.3749578468        1.6725207635       -1.8045104455
 C          4.8019091265        0.0110135664       -0.3026751411
 C          4.1753480341       -1.0817421197       -0.8659274015
 C          4.6484697943       -2.3502760984       -0.5685114687
 C          5.7322198304       -2.5032646854        0.2820604931
 C          6.3536419703       -1.3944112713        0.8367291303
 C          5.8831926179       -0.1243753826        0.5465801591
 H          6.3443400887        0.7638084981        0.9471824894
 H          7.1997127098       -1.5166822925        1.4936415039
 H          6.0958018986       -3.4926247310        0.5109800358
 H          4.1677856074       -3.2132842226       -1.0011392171
 H          3.3388353217       -0.9240773975       -1.5261580728
 H          3.7551259867        2.3901730449        1.4717203257
 H          2.7310734180        1.2819491046        3.2506111899
 H          1.0005499143       -0.3121004451        3.9971035814
 H         -0.4614929076       -1.4158801674        2.3440522947
 C         -0.5030742289       -1.1477099334       -0.2985858074
 H         -0.3721424373       -2.2338907547       -0.1869352308
 C         -0.2804320161       -0.7786387302       -1.7498981719
 C          0.7369712083       -1.5151192085       -2.5663661176
 C         -0.7247930293       -1.7318006091       -2.8168178992
 H         -1.1616193381       -1.3295491746       -3.7186003146
 H         -1.1664679709       -2.6640872735       -2.4953489832
 H          1.3091446996       -0.9626586812       -3.2973992063
 H          1.2820723086       -2.3110075500       -2.0813060303
 H         -0.4205254791        0.2792919007       -1.9420265561
 O         -1.6682048674        1.4797676861       -0.0369577723
