  62
        -98.94116789
 C         -2.5697068298       -1.2168679199        0.4121591810
 C         -2.4665310300       -0.4383318103       -0.7679242993
 C         -3.3057270803        0.7707885295       -0.8134421198
 C         -4.0849537104        1.0796403997        0.2379251501
 C         -4.9462986207        2.3041808295        0.3412949596
 C         -4.1847521309        3.4645070099        0.9970439792
 C         -2.8020795010        3.7156839600        0.3943651791
 H         -2.3708621912        4.5748795503        0.9130973688
 H         -2.1555472308        2.8598452603        0.6051145295
 C         -2.8070316310        3.9817326095       -1.1174578210
 H         -3.8107671711        4.2598970891       -1.4412278311
 H         -2.1511331212        4.8298538595       -1.3249684213
 C         -2.3051697907        2.8143382493       -1.9697548605
 H         -1.3354675606        2.4740436296       -1.5944528804
 H         -2.1461953408        3.1815383189       -2.9873246607
 C         -3.2428890504        1.6036987390       -2.0626147801
 H         -2.8527952303        0.9447329388       -2.8438973298
 H         -4.2412110005        1.9344229887       -2.3567603902
 H         -4.0592641709        3.2409891104        2.0590421293
 H         -4.7897308911        4.3685906698        0.9092154988
 H         -5.2809875607        2.5913031691       -0.6534708005
 H         -5.8168115406        2.0615651296        0.9530545697
 O         -4.1341138702        0.3257547701        1.3659989604
 C         -3.3666470700       -0.8216002297        1.4891037808
 O         -3.4738984299       -1.3903775093        2.5943039010
 O         -1.7224831399       -0.7256885705       -1.7398891992
 C         -1.7471786896       -2.4799094396        0.6089717115
 C         -0.3173820996       -2.2205871795        0.2014787814
 C          0.3431063906       -2.9163403297       -0.8013734783
 C          1.6507372305       -2.5994545295       -1.1261958784
 C          2.3272939103       -1.5946490991       -0.4596176187
 C          1.6745340901       -0.8894586989        0.5431896110
 C          0.3666690901       -1.2113855690        0.8687803111
 H         -0.1459424200       -0.6562924089        1.6466247109
 N          2.3557888198        0.1272594116        1.2372330506
 S          3.1417498896        1.3115981414        0.3416709502
 O          3.2126597393        2.4582063217        1.2222715998
 O          2.5104179696        1.5242399108       -0.9396227099
 C          4.7794926397        0.6493068017        0.1198816105
 C          5.4905421398        0.2811141223        1.2452615906
 C          6.7674231499       -0.2343956875        1.0906490809
 C          7.3095549500       -0.3696291178       -0.1789031291
 C          6.5843312699        0.0085376116       -1.2984021592
 C          5.3059375198        0.5242275113       -1.1507113395
 H          4.7015923097        0.8251512609       -1.9918251596
 H          7.0072492800       -0.0968480887       -2.2845359992
 H          8.3031889001       -0.7722404077       -0.2966256489
 H          7.3343938600       -0.5296812370        1.9587584410
 H          5.0337245597        0.4050931125        2.2128892806
 H          1.8072363597        0.5510354717        1.9717551704
 H          3.3432554702       -1.3421870490       -0.7156478188
 H          2.1500286307       -3.1417119297       -1.9146612781
 H         -0.1751766792       -3.6856873200       -1.3493591780
 H         -1.7564944795       -2.6551234992        1.6978483416
 C         -2.3444353493       -3.7242060200       -0.0302768580
 C         -3.8277948692       -3.8691214804       -0.1901286680
 C         -2.9552263992       -3.7162463507       -1.3978718081
 H         -2.8034090690       -4.5788812809       -2.0302014477
 H         -2.9719025594       -2.7806171409       -1.9333826684
 H         -4.2730316990       -4.8325945204        0.0075634223
 H         -4.4465679994       -3.0339416805        0.1052380916
 H         -1.8048978191       -4.6213938898        0.2572421823
