  62
        -98.94044056
 C         -2.4740234235       -1.1797429012        0.0340428795
 C         -2.4888039320        0.0222065157       -0.7133109683
 C         -3.8181280075        0.5925394857       -0.9777923897
 C         -4.9130152689       -0.0504762172       -0.5319882279
 C         -6.3210399735        0.4470560961       -0.6818055563
 C         -6.7391465003        1.2976140917        0.5259204023
 C         -5.7253353840        2.3789903958        0.8997489422
 H         -6.1387400409        2.9347253324        1.7441225682
 H         -4.8062879140        1.9018661937        1.2478663063
 C         -5.3879531101        3.3531190532       -0.2376032356
 H         -6.1557253526        3.3009598810       -1.0102948995
 H         -5.3950878345        4.3705892639        0.1587997329
 C         -4.0141697360        3.1334878089       -0.8742831735
 H         -3.2490863714        3.0907609190       -0.0946142090
 H         -3.7891804211        3.9974747803       -1.5053451987
 C         -3.8766082421        1.8809526280       -1.7491835048
 H         -4.6826340339        1.8547387882       -2.4854107636
 H         -2.9244082506        1.9520208129       -2.2835150398
 H         -7.7027380300        1.7602224685        0.3053189445
 H         -6.8677435484        0.6369203982        1.3863153813
 H         -6.3988110485        1.0315677501       -1.5963032240
 H         -6.9846235255       -0.4161125204       -0.7545884255
 O         -4.8580005638       -1.2169222266        0.1607257559
 C         -3.6423846453       -1.8036395709        0.4705783926
 O         -3.7321057474       -2.8586522356        1.1306312365
 H          1.5351023788       -1.3541884338       -0.0393955922
 C          1.1075936654       -0.7603869814        0.7503132529
 C         -0.2341145096       -0.8802629244        1.0768339592
 C         -0.7396082514       -0.1012472704        2.1146170889
 C          0.0703946070        0.7954072130        2.7832318021
 C          1.4028281397        0.9317065919        2.4356581444
 C          1.9244105657        0.1421706713        1.4180030369
 N          3.2896056362        0.2207561873        1.0911816131
 S          3.7961139747        0.0145696757       -0.5054776590
 O          3.0961413118        0.9249424426       -1.3837845900
 O          3.7277532672       -1.3845716116       -0.8429265419
 C          5.5033305537        0.5060305280       -0.3432605478
 C          6.4159324839       -0.4163322761        0.1326664612
 C          7.7382115181       -0.0319877207        0.2879927092
 C          8.1242983830        1.2609592692       -0.0331738581
 C          7.1979568725        2.1749461923       -0.5123481332
 C          5.8734720202        1.7972337712       -0.6685610399
 H          5.1208703258        2.4705235428       -1.0468852683
 H          7.5017174675        3.1780288827       -0.7651796610
 H          9.1542482533        1.5574352395        0.0875533949
 H          8.4619490623       -0.7406376341        0.6571187655
 H          6.0713760752       -1.4116028868        0.3597758176
 H          3.7374413223        1.0288699836        1.5024045487
 H          2.0333754756        1.6398703633        2.9516396793
 H         -0.3399332949        1.4005469918        3.5779441353
 H         -1.7833656574       -0.2020505380        2.3816802830
 C         -1.1519057330       -1.8455964964        0.3665973189
 H         -1.3889324127       -2.6662339641        1.0606150727
 C         -0.5412673075       -2.4349570666       -0.8884594971
 C          0.3140980719       -3.6624311321       -0.8101305063
 C         -1.0582863977       -3.7420812898       -1.4063800003
 H         -1.1530888991       -3.8726792636       -2.4739340767
 H         -1.8377620788       -4.2250063547       -0.8347702844
 H          1.1705791415       -3.7335672218       -1.4641504719
 H          0.4683946468       -4.1009099979        0.1643442302
 H         -0.2774372390       -1.6764568597       -1.6183640156
 O         -1.4481557373        0.5925348003       -1.1356335456
