  62
        -98.93913521
 C         -1.5135410646       -0.8479676515       -0.0519923181
 C         -2.7765539062       -1.4794922301       -0.0216667296
 C         -3.9039156972       -0.6637132351        0.4632455282
 C         -3.6726382230        0.6022403122        0.8527373953
 C         -4.6832074089        1.6130568555        1.3201561998
 C         -5.1677637685        2.4792821349        0.1450875852
 C         -6.3517456632        1.9061087731       -0.6326540329
 H         -7.2510544911        1.9706139130       -0.0164492779
 H         -6.5070593932        2.5444634888       -1.5055153113
 C         -6.1869877936        0.4594775200       -1.1059683557
 H         -6.8854524955        0.2950963834       -1.9288793149
 H         -5.1806801351        0.3135763297       -1.5028455520
 C         -6.4685894397       -0.5722369082       -0.0035631945
 H         -7.1809492971       -1.3121048895       -0.3746164471
 H         -6.9519571080       -0.0731144301        0.8362074106
 C         -5.2419436263       -1.3508231018        0.4950705879
 H         -5.1064559304       -2.2472428019       -0.1184033096
 H         -5.4317732779       -1.6988980862        1.5161292665
 H         -4.3220232086        2.6302424349       -0.5304219398
 H         -5.4590259067        3.4592558275        0.5284792504
 H         -5.5155663475        1.1252528417        1.8185669084
 H         -4.1705576320        2.2563583684        2.0382204810
 O         -2.4347281817        1.1678556747        0.8194058606
 C         -1.3261027885        0.4678660401        0.3722197780
 O         -0.2616909100        1.1100831409        0.4018737182
 O         -2.9573988389       -2.6746123179       -0.3834991994
 C         -0.3080143819       -1.6205667405       -0.5532496318
 C          0.7695922100       -1.6423692929        0.5017044238
 C          0.4316481522       -1.9825449251        1.8095776839
 C          1.3867366463       -1.9898919897        2.8066239435
 C          2.6986247410       -1.6489670816        2.5254785068
 C          3.0498656408       -1.3247605894        1.2213780838
 C          2.0905447498       -1.3366233902        0.2171592570
 H          2.3963706537       -1.1058645488       -0.7884345850
 N          4.3725459147       -0.9959935726        0.9001655368
 S          4.7266072392        0.0446710862       -0.3546724752
 O          4.5875355867       -0.6372276720       -1.6175365290
 O          6.0588726333        0.5214782679       -0.0474242977
 C          3.5654553929        1.3937779704       -0.2520139859
 C          3.4508532277        2.0792733002        0.9400135954
 C          2.5649632081        3.1402772873        1.0187165118
 C          1.8152723288        3.4986689349       -0.0898045189
 C          1.9463315775        2.8044454053       -1.2807468986
 C          2.8280318196        1.7401745514       -1.3646074073
 H          2.9537852157        1.1680093963       -2.2707157489
 H          1.3561097387        3.0814204023       -2.1400791157
 H          1.1182165856        4.3189355674       -0.0237192336
 H          2.4545787595        3.6800341873        1.9456082774
 H          4.0500048025        1.7814966884        1.7854953842
 H          4.9938709608       -0.8763918990        1.6857838516
 H          3.4433245321       -1.6401665614        3.3063004342
 H          1.1075874237       -2.2531099229        3.8158479149
 H         -0.5956739045       -2.2354338862        2.0343875108
 H         -0.6598694552       -2.6505158853       -0.7140932345
 C          0.1621729717       -1.0503052643       -1.8750420222
 C          0.8749422285       -1.9200276061       -2.8656384687
 C         -0.5254976743       -1.4627282935       -3.1403994909
 H         -0.6863858823       -0.7194814613       -3.9068810183
 H         -1.3242758624       -2.1853644985       -3.0584901696
 H          1.6846697878       -1.4946503535       -3.4400702163
 H          1.0273394374       -2.9557272914       -2.6016008132
 H          0.4722392620       -0.0143618680       -1.7881570408
