  62
        -98.93445585
 C          2.0160236060       -0.6708108397        0.4404034074
 C          3.1747430981       -1.2145723730       -0.1716066337
 C          4.4454336337       -0.5093563459        0.0614358319
 C          4.4468558123        0.6137353283        0.7988367948
 C          5.6176743791        1.4749633597        1.2021029360
 C          6.6877773061        1.7614055269        0.1405464676
 C          6.1594448024        1.8793929112       -1.2965083434
 H          6.5310860092        2.8069002564       -1.7361194585
 H          5.0694574614        1.9364805989       -1.2910385198
 C          6.6059614760        0.7224304703       -2.1936053483
 H          7.6598192684        0.5134616141       -1.9969208692
 H          6.5244805244        1.0360005109       -3.2371532652
 C          5.8036422483       -0.5696467183       -2.0454624610
 H          6.2899040701       -1.3385562786       -2.6506042823
 H          4.7987037820       -0.4301298746       -2.4528231208
 C          5.6547660558       -1.0959167586       -0.6085937825
 H          6.5587195511       -0.9224732238       -0.0297295672
 H          5.4774342012       -2.1734947940       -0.6631936669
 H          7.4530837222        0.9872724712        0.1753750172
 H          7.1736020167        2.6955048216        0.4279114358
 H          6.0925811121        1.0146859383        2.0737248280
 H          5.1745542536        2.4157830630        1.5379521099
 O          3.3051193026        1.1259215193        1.3356401369
 C          2.0676825133        0.5139408074        1.1752974531
 O          1.1372892876        1.1244713257        1.7326350603
 O          3.1514798308       -2.2572748757       -0.8774555793
 C          0.7030341537       -1.3983573838        0.2061149442
 C         -0.3458097014       -0.4324059563       -0.2799531525
 C         -0.3227455463       -0.0144533123       -1.6070379470
 C         -1.2519044526        0.8936390442       -2.0794830804
 C         -2.2204751552        1.4081089956       -1.2361256013
 C         -2.2489868711        1.0002757752        0.0908980987
 C         -1.3271419161        0.0729828989        0.5583990386
 H         -1.3475458313       -0.2225375127        1.5956471069
 N         -3.2240507539        1.5280662366        0.9547363490
 S         -4.8161367645        1.5159409938        0.4475045445
 O         -5.0353994743        2.5789396611       -0.5013111259
 O         -5.6040804655        1.5741978740        1.6583210131
 C         -5.0174564121       -0.0648010569       -0.3541838907
 C         -5.1478114099       -0.1350160188       -1.7258879989
 C         -5.2413216990       -1.3805552741       -2.3266305381
 C         -5.1998488837       -2.5274632813       -1.5496242643
 C         -5.0717307113       -2.4401989724       -0.1715536085
 C         -4.9763394973       -1.1981715231        0.4339498009
 H         -4.8838142419       -1.0909273201        1.5028428684
 H         -5.0424346286       -3.3341325192        0.4306455463
 H         -5.2687494063       -3.4958585860       -2.0195612008
 H         -5.3425742006       -1.4518671033       -3.3975544656
 H         -5.1782927966        0.7807535375       -2.2929200187
 H         -3.1347327426        1.2158485780        1.9099531370
 H         -2.9433550898        2.1301100414       -1.5799149306
 H         -1.2195480182        1.2094626233       -3.1111968028
 H          0.4416424052       -0.4055639986       -2.2643780005
 H          0.9276851988       -2.0975315581       -0.6155121293
 C          0.2301819305       -2.2493805579        1.3754610781
 C          1.2160903254       -3.0056717057        2.2134705024
 C          0.4409138692       -1.8708990347        2.8096730638
 H         -0.3413590590       -2.1040148673        3.5178939392
 H          0.9563203791       -0.9473350246        3.0213377603
 H          0.9731338358       -4.0130780521        2.5158303298
 H          2.2650475546       -2.8517913793        2.0056911502
 H         -0.6985107246       -2.7622726561        1.1434880887
