  62
        -98.94092549
 C          2.2833994005        0.7841638993       -0.0534876605
 C          2.7762751105       -0.0358231408        0.9889850594
 C          3.3962748408       -1.3012958806        0.5745921792
 C          3.4276517310       -1.6200742204       -0.7326507109
 C          4.0708168113       -2.8521556701       -1.2988710410
 C          5.5385023613       -2.5937885998       -1.6673716608
 C          6.3449173111       -1.9196663999       -0.5574045806
 H          5.9573168508       -0.9109987400       -0.3970460204
 H          7.3706710211       -1.8160005896       -0.9176139505
 C          6.3461357010       -2.6788165801        0.7768008293
 H          7.3657808110       -2.7000072500        1.1671531594
 H          6.0398341712       -3.7129854201        0.6154103490
 C          5.4674251408       -2.0541350205        1.8621320793
 H          5.7080826406       -0.9927324605        1.9627372595
 H          5.7080346108       -2.5353671306        2.8138893492
 C          3.9536239909       -2.1871641107        1.6533556591
 H          3.4618391707       -1.8763755410        2.5801213891
 H          3.6988876311       -3.2321689307        1.4644265888
 H          5.5655923813       -1.9499680496       -2.5494226307
 H          6.0013353115       -3.5472860496       -1.9280867610
 H          4.0048967014       -3.6580414803       -0.5704066612
 H          3.5251907315       -3.1415140600       -2.1985234712
 O          2.9082700710       -0.8251168703       -1.7021432508
 C          2.3272349907        0.3965004996       -1.3930726806
 O          1.8954186907        1.0227714497       -2.3779677405
 H         -0.1463117895        0.2411037287        0.8803372191
 C         -0.6024591096        1.0346102787        0.3000669092
 C          0.1837226603        2.1057986489       -0.1064963105
 C         -0.4141265698        3.1227062990       -0.8381777404
 C         -1.7583198798        3.0527625388       -1.1609393605
 C         -2.5321007996        1.9764118686       -0.7683608308
 C         -1.9486399695        0.9569616385       -0.0270083210
 N         -2.7009118394       -0.1660366417        0.3630989387
 S         -4.1792329995       -0.0340878021        1.1545194586
 O         -4.6200844497        1.3382142478        1.1739774688
 O         -4.0449192495       -0.6891182624        2.4384543885
 C         -5.2622493492       -1.0045762621        0.1219395283
 C         -5.9111473691       -2.0977203524        0.6611763780
 C         -6.7554630888       -2.8449197823       -0.1454244523
 C         -6.9352791487       -2.4888399521       -1.4728504622
 C         -6.2740773189       -1.3903473319       -2.0016757519
 C         -5.4293705191       -0.6400682119       -1.1995875517
 H         -4.8972065092        0.2151956783       -1.5819401114
 H         -6.4119769488       -1.1168114117       -3.0354565819
 H         -7.5925029386       -3.0705048521       -2.0997671424
 H         -7.2682792687       -3.7002414025        0.2642940275
 H         -5.7406832991       -2.3389555125        1.6978191980
 H         -2.1422784193       -0.8641358617        0.8323590087
 H         -3.5822817396        1.9377484084       -1.0042816009
 H         -2.2106091099        3.8489095088       -1.7326871004
 H          0.1708224100        3.9687087791       -1.1587629801
 C          1.6378092202        2.1116941491        0.2997005197
 H          1.6785631001        2.1720724189        1.3980503797
 C          2.4298218301        3.2645233194       -0.2791488300
 C          2.3983719197        4.6076053492        0.3851035903
 C          3.6322787899        3.7613380194        0.4639567202
 H          4.5017466599        4.0600564497       -0.1021436096
 H          3.8670367299        3.2838202393        1.4043212302
 H          1.7964004996        4.7104121489        1.2754411602
 H          2.4229536997        5.4909753394       -0.2349127796
 H          2.4904181802        3.2271353496       -1.3608528900
 O          2.6936799703        0.2725012489        2.2098750194
