  62
        -98.94398618
 C          1.6892636150        1.3111337793        0.3178178024
 C          1.3636725062        0.2600215102       -0.5675037157
 C          1.9284476569       -1.0632003185       -0.2589311102
 C          2.6856821432       -1.2164521341        0.8429826076
 C          3.3247791230       -2.4508062268        1.4441390282
 C          3.5087970379       -3.7196545229        0.6151330656
 C          4.4825669664       -3.5875589159       -0.5546304184
 H          5.4893676378       -3.4416221955       -0.1554658775
 H          4.4766657238       -4.5291698084       -1.1080267294
 C          4.1957450898       -2.4414946368       -1.5213318643
 H          4.3256081960       -1.4871437593       -1.0069132824
 H          4.9429313542       -2.4824645351       -2.3184325722
 C          2.8150834625       -2.4690666723       -2.1746831145
 H          2.6476229415       -3.4428856722       -2.6383083365
 H          2.8136039465       -1.7156688227       -2.9664623279
 C          1.6299974907       -2.1584251060       -1.2413543905
 H          0.7993593776       -1.8006349824       -1.8564637946
 H          1.2831865856       -3.0485054427       -0.7204030485
 H          3.9082720254       -4.4774830989        1.2949113056
 H          2.5459841626       -4.0841404457        0.2689593334
 H          4.2989712283       -2.1261811717        1.8240294692
 H          2.7160244078       -2.6969884155        2.3220298640
 O          2.9593811075       -0.1733209713        1.6812332281
 C          2.4675834131        1.0988586426        1.4517263493
 O          2.7909837672        1.9420339355        2.3149572012
 H         -0.4858023854        1.2128362094        1.6241170183
 C         -1.0519873949        1.7723191644        0.8932940993
 C         -0.3927294827        2.6093483911        0.0019858663
 C         -1.1504854659        3.3262757449       -0.9157746125
 C         -2.5267546313        3.1812636251       -0.9552581027
 C         -3.1723005994        2.3058681300       -0.1010869740
 C         -2.4235214626        1.5931026646        0.8280321119
 N         -3.0250597118        0.6713115033        1.7111483501
 S         -2.5730263559       -0.9366133647        1.5588871467
 O         -3.3849864017       -1.6445671562        2.5261684887
 O         -1.1464213997       -1.0681283525        1.7055124594
 C         -3.0953690555       -1.3868822678       -0.0868834577
 C         -4.2957281695       -2.0552441362       -0.2380956591
 C         -4.7444643527       -2.3512081889       -1.5147182452
 C         -3.9935434997       -1.9655491208       -2.6151986190
 C         -2.7945021958       -1.2912093580       -2.4457550621
 C         -2.3360951593       -0.9945080210       -1.1708630294
 H         -1.4033822678       -0.4730766450       -1.0201185308
 H         -2.2041957934       -0.9863543595       -3.2951012473
 H         -4.3429516840       -2.1919099215       -3.6102269051
 H         -5.6762259403       -2.8771121849       -1.6472003526
 H         -4.8430930001       -2.3361944373        0.6472603491
 H         -4.0348231244        0.7257643778        1.7270971346
 H         -4.2424383928        2.1717738233       -0.1502705054
 H         -3.1020452794        3.7435184812       -1.6747407772
 H         -0.6616705268        3.9942801715       -1.6060004440
 C          1.1124704109        2.6958583317        0.0874126864
 H          1.3755358750        3.2882927957        0.9764784749
 C          1.7471421336        3.3333165533       -1.1319931782
 C          1.9310341475        4.8188274812       -1.2028906551
 C          3.1173658054        3.9254017786       -1.0040335312
 H          3.8133898632        3.7982146945       -1.8195139367
 H          3.5793530259        3.8926938317       -0.0276422184
 H          1.8167345669        5.3082333824       -2.1583697243
 H          1.5948837656        5.4057254859       -0.3614529544
 H          1.5162546406        2.7990151747       -2.0464224051
 O          0.6187298157        0.4156069266       -1.5717462091
