  62
        -98.93548746
 C         -1.9110520413       -1.5176119529        0.0311767040
 C         -2.1712698463       -0.4652806583       -0.8768885806
 C         -3.5169503607        0.1490830388       -0.8208002375
 C         -4.4034981015       -0.2960982403        0.0874944203
 C         -5.7996760960        0.1990934554        0.3571505280
 C         -5.8198940759        1.5275261522        1.1297000222
 C         -4.8297184886        2.5758558227        0.6295085936
 H         -4.8699975189        3.4252582433        1.3166704058
 H         -3.8187070731        2.1672876630        0.6813044625
 C         -5.0954942812        3.1013618699       -0.7793108445
 H         -4.3791738063        3.9059777989       -0.9651196201
 H         -6.0972002917        3.5352373346       -0.8164878954
 C         -4.9646556469        2.0794377139       -1.9110499709
 H         -4.9270988433        2.6388943862       -2.8504382537
 H         -5.8421582820        1.4410762987       -1.9683204358
 C         -3.6980608098        1.2312057277       -1.8587521756
 H         -3.5730388903        0.7323717977       -2.8274478967
 H         -2.8294766623        1.8929192636       -1.7632250726
 H         -6.8325138017        1.9327723827        1.0925767430
 H         -5.5796447695        1.3148846158        2.1743724014
 H         -6.3532400467        0.2841507930       -0.5732111762
 H         -6.2890121239       -0.5640407622        0.9665040891
 O         -4.1010645594       -1.2993347559        0.9605495073
 C         -2.8759885040       -1.9316332888        0.9537985681
 O         -2.7630348673       -2.8416509566        1.7997573065
 O         -1.3339000905       -0.0255948423       -1.7081649484
 C         -0.5965582355       -2.2809580800        0.0797271134
 C          0.4349203339       -1.5579590706        0.9060852150
 C          1.1257260314       -2.2114380897        1.9194100156
 C          2.0852581917       -1.5448416566        2.6623055149
 C          2.3781305790       -0.2171468428        2.4072632943
 C          1.6940219320        0.4441340562        1.3950668044
 C          0.7308508555       -0.2249976281        0.6541398279
 H          0.2050093418        0.2919664137       -0.1350213949
 N          1.9899236495        1.7945983583        1.1157093029
 S          3.5775814622        2.1448790040        0.7061404776
 O          4.4020538530        2.0326361097        1.8828284364
 O          3.5364826879        3.4444043978        0.0759350069
 C          4.0266238295        0.8903820414       -0.4779759804
 C          3.6924582105        1.0885830442       -1.8029976303
 C          3.9736707404        0.0906321968       -2.7218640228
 C          4.5673513413       -1.0888678536       -2.2989837976
 C          4.8943520964       -1.2732754659       -0.9646179874
 C          4.6240648964       -0.2753920207       -0.0418813963
 H          4.8706165368       -0.3771375807        1.0019035134
 H          5.3551630588       -2.1917098130       -0.6389895950
 H          4.7741622864       -1.8692521910       -3.0137393167
 H          3.7203092308        0.2325804861       -3.7600611400
 H          3.2307924847        2.0194365426       -2.0915572565
 H          1.3686340919        2.1936725444        0.4258266032
 H          3.1258235321        0.3164894922        2.9716343796
 H          2.6097957703       -2.0638430457        3.4500257371
 H          0.8966256938       -3.2454403867        2.1318768373
 H         -0.8369417367       -3.2205953879        0.6012729802
 C         -0.0829649425       -2.6568591362       -1.3052610849
 C          1.1123127134       -2.0325367440       -1.9530242328
 C          1.1896768143       -3.4391093274       -1.4465330159
 H          1.2220455934       -4.2493400340       -2.1586582975
 H          1.7647045630       -3.6124010817       -0.5495245426
 H          1.0681560478       -1.8611479112       -3.0174012007
 H          1.6489351632       -1.2676032434       -1.4148594070
 H         -0.8974955832       -2.9306118553       -1.9687421553
