  62
        -98.94376597
 C         -1.7406029900       -0.3747749205        0.3127103500
 C         -2.6062876800       -0.2924948510       -0.8054730301
 C         -3.7780282701        0.5786949289       -0.6378314404
 C         -3.9310057102        1.2916203893        0.4920375293
 C         -5.0589005503        2.2392649593        0.7975839189
 C         -6.3163880403        1.5541888894        1.3502451292
 C         -7.1200112002        0.7473499589        0.3295514595
 H         -8.0784137802        0.5077866390        0.7945219195
 H         -7.3278027402        1.3699348886       -0.5412585508
 C         -6.4480612100       -0.5586677412       -0.1168507000
 H         -5.6625728800       -0.8254122708        0.5938853101
 H         -7.1811114799       -1.3683431213       -0.1021660297
 C         -5.8492371700       -0.5152592317       -1.5228292700
 H         -6.6468258400       -0.3811794420       -2.2568726801
 H         -5.3683677099       -1.4766692617       -1.7199497096
 C         -4.8039589201        0.5886961084       -1.7304751204
 H         -4.2856950601        0.3991852781       -2.6736464704
 H         -5.2906963502        1.5619930283       -1.7886412908
 H         -6.0249647202        0.9056611998        2.1797036094
 H         -6.9631606404        2.3373212495        1.7526422789
 H         -4.6853649404        2.9343909497        1.5527405987
 H         -5.3153232104        2.8056121289       -0.0982460213
 O         -3.0312226802        1.2467503598        1.5111037193
 C         -1.9313676702        0.4087169099        1.4526178897
 O         -1.1984802302        0.4554396004        2.4629393397
 H          0.9807942498        0.8300729300        0.8824021596
 C          1.2164094199        0.4638270197       -0.1091492903
 C          0.5291879900       -0.6410049006       -0.5974638199
 C          0.8298221101       -1.1011277211       -1.8721026197
 C          1.7931504400       -0.4640914812       -2.6365344399
 C          2.4835616899        0.6280959890       -2.1432793203
 C          2.1884818998        1.0941374895       -0.8685498505
 N          2.9374021497        2.1695858298       -0.3357261909
 S          4.5580719397        1.7880563301       -0.1001930007
 O          5.0283980396        2.6766160105        0.9386286889
 O          5.2473300397        1.8673059696       -1.3628139308
 C          4.5157489199        0.0980688703        0.4701175199
 C          4.7626289400       -0.9285683700       -0.4186787897
 C          4.6021485302       -2.2365469299        0.0090278408
 C          4.1958818602       -2.4934984194        1.3091840909
 C          3.9592135700       -1.4513317491        2.1925378305
 C          4.1142794899       -0.1414461593        1.7692273400
 H          3.9370372098        0.6943965810        2.4276224397
 H          3.6437576600       -1.6531166088        3.2039055206
 H          4.0632148403       -3.5123768993        1.6382041913
 H          4.7851965003       -3.0495977901       -0.6745819589
 H          5.0739916700       -0.6850799404       -1.4209286698
 H          2.5498451096        2.5201591001        0.5295873189
 H          3.2532934698        1.1211202389       -2.7149783805
 H          2.0132482901       -0.8277890516       -3.6285203498
 H          0.2994337602       -1.9494577013       -2.2708314894
 C         -0.5105866899       -1.2689763904        0.2978982204
 H         -0.1162945200       -1.2461266599        1.3232312004
 C         -0.8371683898       -2.7021081105       -0.0612386091
 C          0.1845729203       -3.7633874903        0.2132693213
 C         -1.0650868197       -3.6944746001        1.0372467013
 H         -1.8199772096       -4.4534586903        0.8958837616
 H         -0.9891510397       -3.3408541897        2.0553482711
 H          1.1117011403       -3.4496077000        0.6691548012
 H          0.2903040204       -4.5732304206       -0.4918311384
 H         -1.4467304598       -2.7957774009       -0.9506778691
 O         -2.4255954900       -0.9090918414       -1.8861538698
