  62
        -98.92987912
 C         -2.3027761462       -0.0312799508        0.3327563065
 C         -3.3337424690       -0.8571662067       -0.1757613177
 C         -4.5782748306       -0.1712737289       -0.5824952406
 C         -4.6565781373        1.1662934365       -0.4894599393
 C         -5.8352322370        2.0432641774       -0.8103918300
 C         -6.6736920104        2.3092355394        0.4512751708
 C         -7.7431100376        1.2582576314        0.7467983986
 H         -8.1668610064        1.4924708177        1.7261045649
 H         -8.5463049959        1.3478371875        0.0124223632
 C         -7.2503904375       -0.1911905140        0.7579414403
 H         -6.2960260462       -0.2510472999        1.2844264554
 H         -7.9697731318       -0.7848007442        1.3254644121
 C         -7.1104517677       -0.7920164134       -0.6487001546
 H         -7.6040155364       -0.1365182051       -1.3658998692
 H         -7.6389189581       -1.7467832494       -0.6874270757
 C         -5.6697163626       -1.0655905329       -1.1053684749
 H         -5.3738443103       -2.0724337226       -0.7942319021
 H         -5.6342793703       -1.0554648228       -2.1997702243
 H         -5.9871847676        2.3856585512        1.2985716523
 H         -7.1696492293        3.2762155632        0.3454366819
 H         -5.4277368826        2.9927738090       -1.1636768926
 H         -6.4389226086        1.6051851570       -1.5994957344
 O         -3.6301404047        1.9271053044       -0.0160700436
 C         -2.4473256956        1.3563335792        0.4085736732
 O         -1.6073722120        2.1763807188        0.8336329092
 O         -3.2464610445       -2.1060821681       -0.2918485649
 C         -0.9646474201       -0.5660515201        0.8144734194
 C          0.0271506212       -0.6539578617       -0.3166408124
 C         -0.2962135938       -1.2726473937       -1.5205391389
 C          0.6393544828       -1.3590424204       -2.5350924944
 C          1.9136681143       -0.8468013972       -2.3657010628
 C          2.2429406794       -0.2180161431       -1.1705576744
 C          1.2967399990       -0.1190896096       -0.1597573512
 H          1.5618967792        0.3841777983        0.7585030278
 N          3.5188020850        0.3331448003       -0.9757938746
 S          4.1813542286        0.2767051983        0.5767566425
 O          3.9431213434       -1.0216156295        1.1659443605
 O          3.7104079252        1.4138084017        1.3268903498
 C          5.9113707656        0.4818648990        0.1984489838
 C          6.3841550201        1.7547616542       -0.0606277734
 C          7.7212400559        1.9191642077       -0.3851879440
 C          8.5586082700        0.8148249139       -0.4448670077
 C          8.0702950459       -0.4557248028       -0.1797760126
 C          6.7333458027       -0.6277996514        0.1435960982
 H          6.3112179733       -1.5949057938        0.3647987233
 H          8.7246008480       -1.3114298546       -0.2231833786
 H          9.5990829730        0.9461328331       -0.6966269652
 H          8.1048341620        2.9058561870       -0.5889049507
 H          5.6987175357        2.5834078971        0.0083338845
 H          4.1840385892        0.0501201922       -1.6823318442
 H          2.6453632131       -0.9248200869       -3.1554336162
 H          0.3772286288       -1.8426849825       -3.4641179634
 H         -1.2825050479       -1.6928676877       -1.6460188654
 H         -0.5867577512        0.1947808566        1.5175929251
 C         -1.0772286927       -1.8712561406        1.5915461682
 C         -0.5999833363       -3.1915572911        1.0748915204
 C          0.1557707369       -2.5028093281        2.1688220950
 H          0.1082220383       -2.9082162842        3.1684991096
 H          1.1102157162       -2.0589289280        1.9211074500
 H         -1.1891186306       -4.0629663540        1.3163328031
 H         -0.1556507248       -3.2259438901        0.0929979042
 H         -1.9676866968       -1.8940586560        2.2120043812
