  62
        -98.94181136
 C         -2.3785935994       -1.0632642801        0.1365181961
 C         -3.6339730587       -0.9360821550        0.7887724801
 C         -4.6190700994       -0.0632162033        0.1426277433
 C         -4.2962006175        0.5753664957       -0.9961281505
 C         -5.1976545863        1.4808539309       -1.7908548380
 C         -5.2386606195        2.9278139204       -1.2806785357
 C         -5.9979569199        3.1342948171        0.0305935924
 H         -6.9891644012        2.6871327311       -0.0508070804
 H         -6.1351258208        4.2103172553        0.1546715366
 C         -5.2813193004        2.5818533630        1.2706865007
 H         -5.3113864089        3.3256601558        2.0700804998
 H         -4.2283965156        2.4085901888        1.0355254901
 C         -5.8834917881        1.2923206025        1.8287812587
 H         -6.8953012640        1.4872965301        2.1908754534
 H         -5.2771530130        0.9709266789        2.6793405161
 C         -5.9397729283        0.1347516367        0.8234802433
 H         -6.7233849089        0.3132960893        0.0874211680
 H         -6.1734838672       -0.7822655667        1.3698682173
 H         -5.7200663636        3.5314167925       -2.0536779198
 H         -4.2130514329        3.2878743064       -1.1694413218
 H         -6.2077815933        1.0702131011       -1.8055556267
 H         -4.8094785018        1.4871791355       -2.8117823334
 O         -3.0775010361        0.4463426879       -1.5814703430
 C         -2.0829393026       -0.3563236484       -1.0306819321
 O         -1.0226299039       -0.3452320707       -1.6843408203
 O         -3.9188934905       -1.5302994781        1.8617854477
 C         -1.3443842382       -1.9545773199        0.8035922052
 C         -0.0434398247       -1.2103988764        0.9560225872
 C          0.0965812669       -0.2810999599        1.9825508363
 C          1.2626238338        0.4480885935        2.1190163447
 C          2.3088520645        0.2738241580        1.2296033599
 C          2.1695050596       -0.6342039265        0.1891740256
 C          1.0068035473       -1.3846450322        0.0698614325
 H          0.9038364898       -2.0792923658       -0.7490911635
 N          3.2180478584       -0.8167476465       -0.7260557891
 S          4.0707219409        0.5136682483       -1.2857975351
 O          3.2719204832        1.7168977661       -1.2960861868
 O          4.6230831228        0.0949847206       -2.5560984189
 C          5.4003077094        0.6735110364       -0.1092037877
 C          6.1728422041       -0.4403008002        0.1563351061
 C          7.2158881390       -0.3316409615        1.0619250275
 C          7.4703617207        0.8829187064        1.6814249991
 C          6.6890115073        1.9931892198        1.4011612576
 C          5.6432389177        1.8904492085        0.4967861041
 H          5.0065165976        2.7259716159        0.2517921065
 H          6.8884722848        2.9371294274        1.8825995809
 H          8.2824971145        0.9649098818        2.3864103214
 H          7.8257863797       -1.1929487960        1.2821449688
 H          5.9445182097       -1.3641217108       -0.3481804393
 H          2.9834091461       -1.4377100320       -1.4869990216
 H          3.2147215365        0.8503469758        1.3208650589
 H          1.3591645424        1.1626710437        2.9223776445
 H         -0.7264610020       -0.1305657100        2.6676856108
 H         -1.7545435841       -2.1337267255        1.8106565583
 C         -1.1731668742       -3.3230214091        0.1607297096
 C         -2.3603210218       -4.0656941584       -0.3733937494
 C         -1.3047296265       -3.5664586260       -1.3116771606
 H         -0.6438976593       -4.2894387882       -1.7682550559
 H         -1.5335310537       -2.7260222262       -1.9480209555
 H         -2.4307973086       -5.1275653322       -0.1926251760
 H         -3.3118518481       -3.5543190484       -0.3597665162
 H         -0.4276277341       -3.9162749394        0.6819131393
