  62
        -98.93387664
 C         -1.8301528504       -1.1703889785        0.2880301014
 C         -2.1433701900       -0.1125161491       -0.6008912194
 C         -3.5793203800        0.1618349411       -0.8085944597
 C         -4.5007953402       -0.5780141981       -0.1712992092
 C         -6.0035225002       -0.5002972478       -0.2709463293
 C         -6.6413884598        0.8960510324       -0.2689750703
 C         -5.8962206195        1.9504324228        0.5626056989
 H         -6.6065998894        2.4423088335        1.2297351785
 H         -5.1413247996        1.4709379731        1.1882444693
 C         -5.2350408292        3.0312948420       -0.2963356818
 H         -5.0540631689        3.9116465124        0.3251762075
 H         -5.9314400590        3.3261620216       -1.0845232521
 C         -3.8990973392        2.6431483411       -0.9292074815
 H         -3.6005250990        3.4489236706       -1.6042895321
 H         -3.1280887693        2.5733592515       -0.1565949514
 C         -3.8970110096        1.3193358806       -1.7108766905
 H         -4.8355587896        1.1721259705       -2.2397997305
 H         -3.0868661496        1.3650439298       -2.4437960105
 H         -7.6553968198        0.7787022430        0.1170286397
 H         -6.7362715696        1.2553271617       -1.2928330806
 H         -6.3132305403       -1.0334484783       -1.1745642989
 H         -6.3739856704       -1.0727084970        0.5828622911
 O         -4.1552748705       -1.5823721476        0.6827901416
 C         -2.8329382506       -1.8870495178        0.9480168819
 O         -2.6798247609       -2.8040986372        1.7791244625
 H          1.2812831700       -0.0701143303       -0.9141152993
 C          1.2139693101        0.3080974304        0.0940759204
 C          0.3917554298       -0.3285071386        1.0106539408
 C          0.3016365499        0.1930862023        2.2968183104
 C          1.0211214103        1.3181356924        2.6589931196
 C          1.8382544905        1.9529615015        1.7396388492
 C          1.9185921204        1.4489287705        0.4498994796
 N          2.7715854806        2.0866527396       -0.4861056609
 S          4.3888008105        1.7101907293       -0.2695911805
 O          4.8151418306        2.2298616401        1.0043946491
 O          5.0829801307        2.2094733382       -1.4347559509
 C          4.4213909000       -0.0735654007       -0.2461416692
 C          4.5690501798       -0.7536742816       -1.4384715887
 C          4.4869833694       -2.1367684516       -1.4361814177
 C          4.2457373492       -2.8110662907       -0.2487635372
 C          4.0972205793       -2.1132086998        0.9402826823
 C          4.1829961997       -0.7302032298        0.9447356013
 H          4.0723729899       -0.1523719291        1.8478639608
 H          3.9053564992       -2.6400785890        1.8613509627
 H          4.1714362989       -3.8873884307       -0.2494525964
 H          4.6035502693       -2.6834613523       -2.3582896573
 H          4.7545931400       -0.1902119624       -2.3390452291
 H          2.5085755706        1.8899640389       -1.4422551607
 H          2.4188483207        2.8223046315        2.0025695786
 H          0.9443689503        1.7048129732        3.6639914794
 H         -0.3429469302       -0.2958780070        3.0146510808
 C         -0.4019134105       -1.5550219387        0.6412825117
 H         -0.4973912007       -2.1801809280        1.5429145022
 C          0.3104546093       -2.4053021197       -0.4013923376
 C         -0.4137078110       -3.5192792800       -1.0945984668
 C          0.0297450794       -2.3166521107       -1.8697479677
 H          0.8607874894       -2.4262886414       -2.5514189776
 H         -0.7178306104       -1.6149175807       -2.2037289783
 H         -1.4676287410       -3.6305646795       -0.8833987768
 H          0.1024057287       -4.4543770902       -1.2493829661
 H          1.3411163292       -2.5984007497       -0.1183182875
 O         -1.2885285898        0.5735941502       -1.2167688799
