  62
        -98.94466279
 C         -2.0727031573       -0.9275249163       -0.0836813392
 C         -2.7797369973       -0.4122046106        1.0356358125
 C         -3.4524874939        0.8759364338        0.8473318842
 C         -3.3461039507        1.5143915682       -0.3317297807
 C         -3.9359176530        2.8564179867       -0.6708370882
 C         -5.4051390291        2.8038993069       -1.1119701849
 C         -6.4092767718        2.5171082006        0.0051012599
 H         -6.2397461037        3.2098699001        0.8298983683
 H         -7.4028479753        2.7251886169       -0.3966272843
 C         -6.3794156123        1.0738012604        0.5269919440
 H         -5.8557002212        0.4382707007       -0.1907444430
 H         -7.4003664486        0.6938574610        0.6059294788
 C         -5.7271545733        0.9096852375        1.8996851359
 H         -5.7275325251       -0.1530252963        2.1544616184
 H         -6.3179778080        1.4369680261        2.6517506202
 C         -4.2800338704        1.4140161304        1.9754349746
 H         -4.2598373449        2.5037210234        1.9738725256
 H         -3.8393407313        1.0566367170        2.9091915817
 H         -5.6472478174        3.7751641721       -1.5495226882
 H         -5.5070881659        2.0511572547       -1.8970866677
 H         -3.8346949385        3.5251552905        0.1846723507
 H         -3.3410735644        3.2564229983       -1.4951172464
 O         -2.6463826610        0.9996231832       -1.3755491543
 C         -2.0014849963       -0.2258800691       -1.2869450288
 O         -1.4224093077       -0.5517402550       -2.3444898208
 O         -2.8435214778       -1.0072858104        2.1437596451
 C         -1.3551337196       -2.2533382330        0.1204329215
 C          0.1036506124       -1.9886204048        0.4061988193
 C          0.6305493607       -2.1897710535        1.6767104574
 C          1.9520964214       -1.8824096308        1.9497983841
 C          2.7701317722       -1.3549676436        0.9663479644
 C          2.2490553578       -1.1422231010       -0.3027485426
 C          0.9334813384       -1.4753091348       -0.5810602013
 H          0.5336723550       -1.2868061121       -1.5665431316
 N          3.0662705305       -0.5504466536       -1.2964432879
 S          3.3711287786        1.0854345894       -1.0159749609
 O          2.2761820696        1.7132972603       -0.3089069738
 O          3.7111102460        1.6465739175       -2.3055877017
 C          4.8247724592        1.0635656687        0.0118906135
 C          4.7573199188        1.5370497157        1.3074040098
 C          5.9005899302        1.5083800116        2.0910226814
 C          7.0836006114        1.0090442531        1.5677995172
 C          7.1346652386        0.5382298669        0.2639606381
 C          5.9958520251        0.5649624405       -0.5251067041
 H          5.9907336823        0.2155340376       -1.5440208341
 H          8.0565947329        0.1513479126       -0.1391322567
 H          7.9711973677        0.9873999245        2.1801564064
 H          5.8622575236        1.8738783370        3.1046267173
 H          3.8132367387        1.9103994495        1.6708802763
 H          2.6634597851       -0.6404134240       -2.2203600617
 H          3.7975751620       -1.1029969918        1.1729370178
 H          2.3468523000       -2.0469319983        2.9406327118
 H         -0.0126096024       -2.5689475821        2.4575010285
 H         -1.8010999880       -2.6828920716        1.0274990938
 C         -1.5423625453       -3.2358206038       -1.0174377058
 C         -1.2940508006       -4.6915592245       -0.7627240017
 C         -2.6922034625       -4.1952231671       -0.9734050570
 H         -3.1949315559       -4.4375643408       -1.8976366997
 H         -3.3509956586       -4.1463592641       -0.1186737686
 H         -0.8336823621       -5.2788102993       -1.5422005295
 H         -1.0046063901       -4.9805274537        0.2362130831
 H         -1.2673060291       -2.8379816391       -1.9854014428
