  62
        -98.94111440
 C         -2.0548240097       -0.7453254982       -0.4373221243
 C         -3.1932714425       -1.2900090151        0.2130102869
 C         -4.4619752368       -0.5853501708        0.0024814934
 C         -4.4901178489        0.5202612614       -0.7628252897
 C         -5.7086470569        1.3387144113       -1.0932629074
 C         -6.0774140954        2.3711906273       -0.0192269157
 C         -6.6761215693        1.7910799570        1.2628211748
 H         -7.0871103877        2.6279423069        1.8310536531
 H         -7.5066226593        1.1316887402        1.0085191529
 C         -5.6714080069        1.0399715377        2.1477264346
 H         -4.6543635409        1.3104696950        1.8540825631
 H         -5.7971795765        1.3522819737        3.1869124553
 C         -5.8093331569       -0.4821241693        2.1126376870
 H         -5.0270967370       -0.9117061382        2.7434960434
 H         -6.7758927061       -0.7721106652        2.5305982970
 C         -5.6789227694       -1.0964622161        0.7128434373
 H         -6.5749043482       -0.8916201613        0.1271125819
 H         -5.5712613113       -2.1784081782        0.8224611714
 H         -5.1862148576        2.9539880097        0.2254138816
 H         -6.8086279522        3.0526216707       -0.4603106223
 H         -5.4832095231        1.8717458440       -2.0195534750
 H         -6.5573668313        0.6773920368       -1.2706936561
 O         -3.3768037906        1.0228994839       -1.3557874828
 C         -2.1306842170        0.4236275046       -1.1970220966
 O         -1.2133166518        1.0266078340       -1.7833677501
 O         -3.1499822468       -2.3205264277        0.9356602233
 C         -0.7284812091       -1.4527063623       -0.2170649084
 C          0.3220046903       -0.4625646995        0.2139724266
 C          0.2969936410        0.0277917836        1.5161958267
 C          1.2268692755        0.9584707956        1.9402547984
 C          2.2005379622        1.4213984235        1.0731793009
 C          2.2325674280        0.9394950863       -0.2286268448
 C          1.3071842220       -0.0072480682       -0.6479703619
 H          1.3295015001       -0.3581410140       -1.6677826196
 N          3.2174753240        1.4092458371       -1.1134058732
 S          4.7992353633        1.4578815644       -0.5770672556
 O          5.0013855290        2.6213572517        0.2500997451
 O          5.6103414466        1.3828440085       -1.7717839342
 C          4.9883025603       -0.0213348848        0.4024535234
 C          5.1733088810        0.0694732659        1.7666338071
 C          5.2627020637       -1.0969621190        2.5097578103
 C          5.1625516360       -2.3270997494        1.8792340947
 C          4.9808244875       -2.4019471365        0.5064805164
 C          4.8905340025       -1.2394038787       -0.2410049473
 H          4.7564691159       -1.2602019572       -1.3106580742
 H          4.9058070886       -3.3603633295        0.0182301917
 H          5.2274253844       -3.2338789873        2.4596794757
 H          5.4061394169       -1.0420091916        3.5768325338
 H          5.2463865788        1.0457426462        2.2170744746
 H          3.1470402977        1.0302660936       -2.0456420467
 H          2.9236480003        2.1602521866        1.3784852775
 H          1.1920252957        1.3317008418        2.9525203239
 H         -0.4705845795       -0.3243327479        2.1916558318
 H         -0.9244624004       -2.1297251843        0.6302945546
 C         -0.2786508889       -2.3336887890       -1.3730810585
 C         -1.2800041088       -3.1100118949       -2.1735635496
 C         -0.5174353066       -1.9895321234       -2.8115793657
 H          0.2506185643       -2.2391038112       -3.5297325067
 H         -1.0371378414       -1.0709712067       -3.0342109636
 H         -1.0415479118       -4.1241906988       -2.4563439869
 H         -2.3250175043       -2.9522776885       -1.9496130926
 H          0.6542745285       -2.8413554843       -1.1465667156
