  62
        -98.93798283
 C         -2.4319231706       -0.3745385377        0.4656296933
 C         -3.2263080222       -0.3480378217       -0.7078847134
 C         -4.3364828946        0.6175479094       -0.7000082432
 C         -4.5099540821        1.4415870673        0.3477403112
 C         -5.5761211798        2.4945912159        0.4830043470
 C         -6.9189324465        1.9590647007        0.9986316867
 C         -7.7135629507        1.1214463811       -0.0041658803
 H         -8.7172446187        0.9966341943        0.4071660484
 H         -7.8116347726        1.6731072128       -0.9396278985
 C         -7.1188267658       -0.2661321312       -0.2825251089
 H         -6.4069007383       -0.5218226023        0.5058261538
 H         -7.9129112352       -1.0156748324       -0.2509234747
 C         -6.4247054517       -0.3981797040       -1.6382634089
 H         -7.1578526965       -0.2743201862       -2.4383576777
 H         -6.0107603988       -1.4069241792       -1.7145080022
 C         -5.2823055748        0.6010486171       -1.8630559485
 H         -4.7193672884        0.2854466194       -2.7447488154
 H         -5.6842713569        1.5979127804       -2.0419821063
 H         -6.7369562502        1.3712462182        1.9014127923
 H         -7.5268881244        2.8215942122        1.2812373218
 H         -5.1994049476        3.2272402073        1.1999657979
 H         -5.7252110048        2.9915549017       -0.4759500126
 O         -3.6923267666        1.4206866151        1.4346476272
 C         -2.6608904263        0.5032849097        1.5288005169
 O         -2.0210036408        0.5632493679        2.5991488034
 H          1.0685425090       -1.0415207973        1.9576062946
 C          1.1308898165       -0.7023576335        0.9319002858
 C          0.0062828764       -0.7716610407        0.1231366683
 C          0.0973568001       -0.3132917873       -1.1874970630
 C          1.2901417783        0.1940143873       -1.6695500922
 C          2.4103287745        0.2606855630       -0.8590692813
 C          2.3288832153       -0.1883248230        0.4517511906
 N          3.4585177252       -0.1067801265        1.2831833196
 S          4.9066413012       -0.7443501986        0.7210321357
 O          4.6776849054       -1.8276723045       -0.2064779954
 O          5.6640977758       -1.0648520263        1.9108827995
 C          5.6851538085        0.6225166619       -0.1118595540
 C          5.8681033322        1.7963567316        0.5926139347
 C          6.4846269956        2.8652258069       -0.0378192972
 C          6.9081785175        2.7418862694       -1.3529066737
 C          6.7198641829        1.5555647049       -2.0452600376
 C          6.1026794378        0.4827053997       -1.4208443599
 H          5.9301048792       -0.4568329678       -1.9213420252
 H          7.0500964346        1.4617533648       -3.0673144168
 H          7.3879865890        3.5755017278       -1.8409867536
 H          6.6325635155        3.7896089564        0.4969688883
 H          5.5277309842        1.8508173563        1.6132706381
 H          3.2859715643       -0.3920677070        2.2363529819
 H          3.3410457047        0.6563013940       -1.2317657915
 H          1.3487963315        0.5435625265       -2.6891899763
 H         -0.7742828336       -0.3668041974       -1.8220006163
 C         -1.2776677881       -1.3426877218        0.6672517669
 H         -1.1631748440       -1.4244412417        1.7601615042
 C         -1.5763257187       -2.7420110658        0.1447422940
 C         -0.8917000191       -3.3613904956       -1.0323972732
 C         -0.5779432855       -3.8432572341        0.3500471402
 H         -0.9320295265       -4.8154744338        0.6579444534
 H          0.3829870513       -3.5726530654        0.7633347557
 H         -1.4854840192       -3.9870105322       -1.6810550054
 H         -0.1403835115       -2.7880168317       -1.5517208622
 H         -2.6200321486       -3.0066264700        0.2813453607
 O         -3.0385410965       -1.0755563551       -1.7149582286
