  62
        -98.94528386
 C         -2.2574436934       -0.6390133733       -0.1716426689
 C         -1.3766986719       -0.9650414870        0.8829695456
 C         -0.6100877128       -2.2165921677        0.7433612317
 C         -0.7509948782       -2.9372054617       -0.3842829882
 C         -0.0065634396       -4.1926880526       -0.7452689421
 C          1.4280855013       -3.9085364874       -1.2370240832
 C          2.1376914856       -2.7362145967       -0.5581106365
 H          1.5063683786       -1.8480280964       -0.6288647178
 H          3.0402447830       -2.5152104132       -1.1361062120
 C          2.5583916135       -2.9698170832        0.8918962016
 H          2.9594358538       -2.0278934573        1.2748793899
 H          3.3645642990       -3.7077479895        0.9069873318
 C          1.4613169445       -3.4598970341        1.8341647519
 H          1.8936515199       -3.5129051424        2.8377177842
 H          1.1691671754       -4.4721098559        1.5669929492
 C          0.2357596110       -2.5553565223        1.9460313957
 H          0.5461440748       -1.5900162232        2.3569126232
 H         -0.4434704289       -2.9936080717        2.6883776744
 H          1.3734460690       -3.6721932041       -2.3023066533
 H          2.0239695687       -4.8155328556       -1.1216905449
 H         -0.5616758253       -4.6743827468       -1.5529308886
 H         -0.0062018278       -4.8677921109        0.1066329296
 O         -1.5874880507       -2.5692955958       -1.3944220223
 C         -2.3562698391       -1.4239774744       -1.3185678592
 O         -3.0808858365       -1.2154502798       -2.3146174036
 O         -1.2242256897       -0.2350667474        1.8994242617
 C         -3.0582875418        0.6503269210       -0.1081960135
 C         -2.1056532457        1.8136879913        0.0355322644
 C         -2.2761153511        2.8502450942        0.9440103480
 C         -1.3295857306        3.8562954755        1.0400417485
 C         -0.1915675849        3.8404269512        0.2541481862
 C         -0.0188578580        2.8144059798       -0.6688766377
 C         -0.9894046308        1.8331787686       -0.7910991627
 H         -0.8522295851        1.0437056506       -1.5152558282
 N          1.1216378895        2.7588801664       -1.4919650192
 S          2.0368497655        1.3630156216       -1.5958417480
 O          3.1046410781        1.6950114585       -2.5142462446
 O          1.2029371150        0.2481200679       -1.9628459866
 C          2.7324493354        1.1190089522        0.0302166906
 C          1.8977284127        0.8254918680        1.0899892570
 C          2.4502782291        0.6761418149        2.3530361737
 C          3.8177415335        0.8116830157        2.5350058461
 C          4.6429723065        1.1018551236        1.4590228716
 C          4.0965551291        1.2635998419        0.1962253418
 H          4.6968439865        1.4942325452       -0.6688314436
 H          5.7068286264        1.2046412983        1.5999366268
 H          4.2398390080        0.6885871799        3.5198726182
 H          1.7985206554        0.4541461979        3.1834954841
 H          0.8368269140        0.7109925730        0.9318923548
 H          1.7313441878        3.5601169921       -1.4076401338
 H          0.5572459893        4.6119574582        0.3503357069
 H         -1.4713450774        4.6549288687        1.7521158506
 H         -3.1436246846        2.8657336400        1.5830975461
 H         -3.5696809925        0.7399445360       -1.0780789284
 C         -4.0966155555        0.5782965190        0.9916948581
 C         -5.3766449575        1.3482217233        0.8739167176
 C         -5.3824209217       -0.1428928279        0.7258267574
 H         -5.8119981813       -0.7403380540        1.5158325736
 H         -5.5193678398       -0.5616579702       -0.2609397161
 H         -5.8076105646        1.7733183448        1.7677892459
 H         -5.5220348729        1.9445995947       -0.0141908991
 H         -3.6533409046        0.4646060125        1.9741494374
