  62
        -98.94451848
 C         -2.0592122628       -0.8801205828       -0.3886751887
 C         -1.2313893700       -1.7639166997       -1.1244775418
 C         -0.4288701486       -2.7068065440       -0.3415278273
 C         -0.5046426070       -2.6874634991        1.0012275895
 C          0.2757639236       -3.5639125301        1.9424438284
 C          1.6838024112       -3.0271216561        2.2372279291
 C          2.6942847792       -3.2005833715        1.1019776209
 H          2.6767274985       -4.2342582325        0.7538904928
 H          3.6836559345       -3.0134001064        1.5239663114
 C          2.4782381446       -2.2475650208       -0.0820625735
 H          3.4365509404       -1.8166204345       -0.3817545009
 H          1.8447038786       -1.4158358718        0.2376912769
 C          1.8696608937       -2.8994716028       -1.3237778595
 H          2.5706253622       -3.6303569737       -1.7331297167
 H          1.7151319732       -2.1206473518       -2.0747738588
 C          0.5254587105       -3.5969659209       -1.0798527732
 H          0.6768853744       -4.5269829118       -0.5324743507
 H          0.0794164684       -3.8286291434       -2.0503759359
 H          2.0589773363       -3.5548946981        3.1175989697
 H          1.6028518345       -1.9661854274        2.4900443431
 H          0.3426776375       -4.5758043268        1.5411574431
 H         -0.2853525182       -3.5950425899        2.8789596590
 O         -1.3314384422       -1.8463634715        1.6730128759
 C         -2.0739498510       -0.8811790273        1.0084734234
 O         -2.7073488907       -0.1231793827        1.7680441648
 O         -1.1520632165       -1.7490866508       -2.3833633653
 C         -2.7761957536        0.2109925603       -1.1666882255
 C         -2.3910407407        1.5462950127       -0.5794029318
 C         -3.2916388468        2.5437197710       -0.2357483780
 C         -2.8412363533        3.7168915616        0.3471339655
 C         -1.4996811184        3.9069752418        0.6183394661
 C         -0.5875354405        2.9152256279        0.2701679794
 C         -1.0359734513        1.7676574703       -0.3577847332
 H         -0.3311255661        0.9909954335       -0.6182105783
 N          0.7844152712        3.0730633997        0.5295905371
 S          1.7436817277        1.8061668616        1.0680090166
 O          0.9684558379        0.6387678677        1.4120425868
 O          2.5594208464        2.3625165274        2.1289121950
 C          2.8100353096        1.4351089032       -0.3133730448
 C          4.0777725858        0.9641063367       -0.0299582347
 C          4.9248013509        0.6323261069       -1.0751750025
 C          4.4906797477        0.7722630437       -2.3843013491
 C          3.2177285542        1.2496750952       -2.6533864907
 C          2.3668836246        1.5866506712       -1.6113684688
 H          1.3749770089        1.9644665929       -1.7989764108
 H          2.8797800340        1.3608069537       -3.6713405319
 H          5.1470591618        0.5101489830       -3.1988815812
 H          5.9163180431        0.2645610117       -0.8651032186
 H          4.3739396472        0.8740342548        1.0026296070
 H          1.0154158613        3.9154133769        1.0358319282
 H         -1.1565503638        4.8077791694        1.1046097593
 H         -3.5504712566        4.4847945753        0.6170290083
 H         -4.3468742355        2.3950752343       -0.3955916837
 H         -2.3357925614        0.1469113726       -2.1769739885
 C         -4.2737219828        0.0188288969       -1.3441256485
 C         -4.9022509126       -1.3341789375       -1.2001189969
 C         -5.1945601033       -0.2619117174       -0.1959906983
 H         -6.1750850970        0.1919041171       -0.2046660795
 H         -4.7551751982       -0.3412846019        0.7854798142
 H         -5.6777027001       -1.6178945778       -1.8959034762
 H         -4.2627256576       -2.1513416141       -0.8983457227
 H         -4.6702526206        0.6443114629       -2.1383559741
