  62
        -98.93552201
 C         -2.6459632692       -1.0667075487        0.7113677503
 C         -2.6944071243        0.2222437697        1.3024505278
 C         -3.9034960215        1.0115408717        1.0499300643
 C         -4.8926010034        0.4893738895        0.3023945567
 C         -6.2060268722        1.1499526720       -0.0181822622
 C         -6.1488596016        2.1096969001       -1.2143231071
 C         -5.4181028517        3.4276489698       -0.9551802793
 H         -5.6401815089        4.0883030671       -1.7955463855
 H         -5.8223873763        3.8958434095       -0.0572021905
 C         -3.8944735760        3.2909794985       -0.8252649969
 H         -3.5768814501        2.3291388631       -1.2352873448
 H         -3.4060283151        4.0661245882       -1.4203331822
 C         -3.3647809549        3.4172013054        0.6033348132
 H         -2.2820645580        3.2664189947        0.5800355137
 H         -3.5562615655        4.4256204534        0.9770894914
 C         -3.9640137650        2.4077734869        1.5914050810
 H         -4.9923556775        2.6796296345        1.8290222929
 H         -3.3721524660        2.4342289563        2.5095929105
 H         -5.6803201092        1.5930534817       -2.0551480318
 H         -7.1786905857        2.3394114178       -1.4973153627
 H         -6.9073427303        0.3469184535       -0.2548150742
 H         -6.5709249366        1.6830505303        0.8602086866
 O         -4.8129305533       -0.7502354016       -0.2450288262
 C         -3.6847086382       -1.5498274138       -0.0859245114
 O         -3.7577031201       -2.6344535236       -0.6902260687
 O         -1.7689470059        0.6833095518        2.0245068761
 C         -1.3917033106       -1.8801349885        0.9745970867
 C         -0.3429813260       -1.5913161265       -0.0695644594
 C         -0.6367194874       -1.6669070292       -1.4273920201
 C          0.3367409320       -1.3877545703       -2.3691479891
 C          1.6167569192       -1.0303016941       -1.9818143755
 C          1.9179179645       -0.9410382160       -0.6295332384
 C          0.9367806338       -1.2211243867        0.3149167758
 H          1.1680856223       -1.1346300811        1.3681107921
 N          3.2207269975       -0.6034198441       -0.2148768046
 S          3.9982699028        0.6871626405       -0.9816212621
 O          3.1772477094        1.8763198972       -0.9170507327
 O          4.3954684556        0.2650105607       -2.3008214513
 C          5.4358313726        0.8565261742        0.0563470727
 C          6.4936723226       -0.0117329124       -0.1364540869
 C          7.6037011570        0.0931227176        0.6861821431
 C          7.6371423232        1.0584656896        1.6817390222
 C          6.5684032255        1.9235925763        1.8617612435
 C          5.4539095318        1.8230252617        1.0436000298
 H          4.6033976678        2.4786279685        1.1433039721
 H          6.5981704079        2.6744970808        2.6348690609
 H          8.5026927870        1.1391546633        2.3201859070
 H          8.4377555038       -0.5759157402        0.5486864754
 H          6.4265700495       -0.7393197451       -0.9281192201
 H          3.2693745361       -0.4793338627        0.7882279552
 H          2.3775790569       -0.8045968577       -2.7108304785
 H          0.0973907168       -1.4490770386       -3.4205269504
 H         -1.6338047872       -1.9463951859       -1.7341698825
 H         -1.0102973382       -1.4958503876        1.9344350518
 C         -1.6549157750       -3.3676614635        1.1587608174
 C         -1.2369016996       -4.4136542003        0.1740943664
 C         -0.5180143276       -4.2919356328        1.4819656416
 H         -0.6668995714       -5.0546687853        2.2309747560
 H          0.4784493395       -3.8764019724        1.4630373112
 H         -1.9054227524       -5.2465268874        0.0193034968
 H         -0.7244204183       -4.0983060733       -0.7209189546
 H         -2.5909055221       -3.5481363940        1.6774482249
