  62
        -98.93687730
 C          1.8870054143        0.8835371906        0.3103661560
 C          2.3279647456       -0.3073804566       -0.3140456492
 C          3.7231029651       -0.6961126266       -0.0475847714
 C          4.4725967878        0.0611805642        0.7736459892
 C          5.9267922693       -0.1586841693        1.0797235354
 C          6.7926750765        0.3317426851       -0.0983442424
 C          7.5624441283       -0.7756591300       -0.8181548816
 H          7.9564554528       -0.3514638054       -1.7441728967
 H          8.4147767774       -1.0729372016       -0.2035415872
 C          6.7612728251       -2.0385145017       -1.1495103488
 H          6.6793839699       -2.6655191352       -0.2603770433
 H          7.3474015992       -2.6051864241       -1.8762173958
 C          5.3555484099       -1.8114134596       -1.7206581205
 H          5.2875659922       -0.8331489413       -2.1970374828
 H          5.1817314641       -2.5569162582       -2.4994039941
 C          4.2149136127       -1.9605368649       -0.6961975169
 H          3.3382607793       -2.3712402263       -1.2061848006
 H          4.5088911801       -2.6770668898        0.0759229585
 H          7.5114952897        1.0697869160        0.2606625124
 H          6.1432268094        0.8463050454       -0.8095777338
 H          6.1578114408        0.4073480419        1.9823516458
 H          6.1064071921       -1.2136553801        1.2745765833
 O          4.0029799654        1.1842918520        1.3762553575
 C          2.7068093025        1.6210440038        1.1660798104
 O          2.4061409953        2.6600494155        1.7867790558
 H         -1.2911267909       -0.3377186619       -1.1395021012
 C         -1.3206547416       -0.4100589950       -0.0639219139
 C         -0.4935196005        0.3905662490        0.7066929753
 C         -0.5453054249        0.2611585571        2.0922056399
 C         -1.4018471802       -0.6446579589        2.6885780925
 C         -2.2248009860       -1.4457342974        1.9147389528
 C         -2.1746857715       -1.3279493868        0.5336241575
 N         -3.0312666590       -2.1276739747       -0.2572237136
 S         -4.6601900439       -1.7576165058       -0.1179192337
 O         -5.1181802865       -2.1414177132        1.1925405934
 O         -5.3093613785       -2.3986073776       -1.2386722251
 C         -4.7164717357        0.0164014026       -0.2950789826
 C         -4.7899563216        0.5530811490       -1.5650986501
 C         -4.7397838668        1.9292065330       -1.7154288040
 C         -4.6027288125        2.7401155843       -0.5991002999
 C         -4.5269594534        2.1854743906        0.6691525637
 C         -4.5829169135        0.8098887340        0.8265031941
 H         -4.5299763122        0.3414455524        1.7954936415
 H         -4.4184665204        2.8181040494        1.5355497098
 H         -4.5556003334        3.8111940285       -0.7187198785
 H         -4.8017548038        2.3652676701       -2.6995481789
 H         -4.8987247427       -0.1129869053       -2.4061306967
 H         -2.7702250178       -2.1316257603       -1.2335928953
 H         -2.9102137103       -2.1493753919        2.3589675198
 H         -1.4300094376       -0.7303177893        3.7644031716
 H          0.1020344442        0.8835226660        2.6951852079
 C          0.4672874042        1.3872963583        0.1072087392
 H          0.3939164959        2.3159084088        0.6892767302
 C          0.1927861355        1.7007566118       -1.3484232680
 C         -1.0027937083        2.5300573027       -1.7077595245
 C          0.3754296372        3.1030258336       -1.8417454861
 H          0.7794640586        3.2513185003       -2.8319827296
 H          0.6946061814        3.8459544274       -1.1255174930
 H         -1.6252805940        2.8804804492       -0.8985385979
 H         -1.5483503623        2.2878800825       -2.6069841002
 H          0.4778157738        0.8977326060       -2.0174451191
 O          1.6011738480       -1.0133476794       -1.0616261307
