  62
        -98.94675693
 C         -1.1563520202       -1.1369438998       -0.1850021196
 C         -1.9948869802       -0.7582780197        0.8978789304
 C         -2.8220195803        0.4350699702        0.6968820102
 C         -2.7356531803        1.1156180600       -0.4598587799
 C         -3.5069260804        2.3565357099       -0.8199149201
 C         -4.9163373504        2.0788396798       -1.3612148600
 C         -5.9351042604        1.6144011699       -0.3195950299
 H         -5.9347674803        2.3072131901        0.5224925800
 H         -6.9199281204        1.6725910098       -0.7874434798
 C         -5.7148355203        0.1824824600        0.1881626904
 H         -6.6677979702       -0.3514611300        0.1956037705
 H         -5.0556476003       -0.3510044001       -0.5005683195
 C         -5.1338180502        0.0919812303        1.5993118004
 H         -5.8476061902        0.5034842304        2.3164067503
 H         -4.9846568702       -0.9633482896        1.8410805506
 C         -3.7912162402        0.8132333504        1.7758806302
 H         -3.9457897803        1.8920049104        1.7892937400
 H         -3.3613360302        0.5067557206        2.7323902802
 H         -4.8448845404        1.3345257496       -2.1577256899
 H         -5.2827904005        3.0066896897       -1.8066711801
 H         -3.5747552504        3.0152621201        0.0463378798
 H         -2.9369317905        2.8640360398       -1.6008593102
 O         -1.8919974004        0.7474539199       -1.4564570599
 C         -1.0943238603       -0.3821115301       -1.3562566097
 O         -0.3942085603       -0.5763085302       -2.3717903797
 H          1.5022281697       -1.0379665300       -1.4280656297
 C          1.8957710598       -1.3564786498       -0.4743118596
 C          1.0855615598       -2.0795983296        0.3894364205
 C          1.6057823799       -2.4639235294        1.6195183206
 C          2.9027290899       -2.1327122393        1.9736941005
 C          3.7023658798       -1.3990790394        1.1149807503
 C          3.1862986598       -1.0052774697       -0.1119279198
 N          3.9686227097       -0.1907775098       -0.9678563599
 S          4.1660205297        1.3669650403       -0.3760172902
 O          4.5735110896        2.1750894101       -1.5024909204
 O          5.0790944097        1.3215086806        0.7375936797
 C          2.5443680997        1.8520171004        0.1908189497
 C          2.1744364897        1.5747821506        1.4917789998
 C          0.8885471897        1.8852444806        1.9022824298
 C          0.0020227897        2.4720501604        1.0131169997
 C          0.3902604696        2.7487669702       -0.2883592103
 C          1.6701222296        2.4267327602       -0.7090061603
 H          2.0055975396        2.6224340900       -1.7151577504
 H         -0.3022442704        3.2024461900       -0.9791099404
 H         -0.9989254603        2.7105859804        1.3365877497
 H          0.5783060898        1.6646956708        2.9109647299
 H          2.8949509398        1.1288326507        2.1574899799
 H          3.5761517797       -0.1324430800       -1.8984305699
 H          4.7035002098       -1.1031571493        1.3836573002
 H          3.2925495299       -2.4409323691        2.9317875705
 H          0.9797983199       -3.0115910793        2.3085480407
 C         -0.3377739602       -2.4039453798        0.0067415906
 H         -0.8028410901       -2.9175142096        0.8587806708
 C         -0.3784286202       -3.3321901800       -1.1918543592
 C         -0.0707958201       -4.7854088499       -0.9966758489
 C         -1.4733414501       -4.3492594201       -1.2949473490
 H         -1.8872164102       -4.5637103903       -2.2688609989
 H         -2.1992866201       -4.3853111399       -0.4956540689
 H          0.4821339399       -5.3021002401       -1.7659974689
 H          0.1533992699       -5.1195239198        0.0049370611
 H         -0.0465040902       -2.8661345502       -2.1104686393
 O         -2.0533289201       -1.3973496895        1.9807424305
