  62
        -98.94702165
 C         -2.2399275293       -0.6598546511       -0.4787879711
 C         -1.4678130291        0.3191874892       -1.1484457106
 C         -1.8503820398        1.7193452090       -0.9125929009
 C         -2.8684438204        1.9999091487       -0.0811834616
 C         -3.3315428012        3.3804203986        0.2821612680
 C         -2.6226326022        3.9004041989        1.5398976084
 C         -1.1008480821        3.7552603594        1.5033731895
 H         -0.8319389918        2.6959632495        1.5306823297
 H         -0.7103238929        4.2022226396        2.4208813397
 C         -0.4265738815        4.4100573396        0.2897782399
 H          0.4560895581        4.9532704599        0.6341789905
 H         -1.1008062314        5.1375840793       -0.1649409606
 C          0.0486014696        3.4145504097       -0.7700662197
 H          0.6113336395        2.6170481899       -0.2781226693
 H          0.7314948299        3.9343575399       -1.4478824193
 C         -1.0565375996        2.7790178793       -1.6240980004
 H         -0.5786976689        2.2796460094       -2.4718747601
 H         -1.7160699496        3.5581449790       -2.0126507909
 H         -2.9971992626        3.3461036588        2.4037432182
 H         -2.8846061326        4.9522669888        1.6715375282
 H         -3.1458733908        4.0512181486       -0.5545886419
 H         -4.4055713913        3.3411763983        0.4733793672
 O         -3.5836355106        1.0374222685        0.5555798979
 C         -3.2805149500       -0.3010886514        0.3835085782
 O         -4.0124371702       -1.0756141816        1.0343597977
 H          0.5117340307       -1.1558835401       -0.2415890892
 C          0.2885601505       -1.9217178402        0.4806106307
 C         -0.9408841593       -2.5642518306        0.4417114099
 C         -1.2051921296       -3.5615328006        1.3722854198
 C         -0.2649150501       -3.8923144103        2.3319749005
 C          0.9367028196       -3.2118694098        2.4007314513
 C          1.2108144899       -2.2106393298        1.4741952414
 N          2.4140653296       -1.4929376694        1.5332980722
 S          2.4592770992        0.1759295306        1.3079999821
 O          3.3230977583        0.6648196710        2.3657125327
 O          1.1343034291        0.7410409802        1.2599854012
 C          3.3278175602        0.3512155208       -0.2377121273
 C          4.7094314802        0.3214031713       -0.1874092863
 C          5.4306657910        0.4275469315       -1.3643782658
 C          4.7614703118        0.5607197812       -2.5719664863
 C          3.3767032918        0.5899315207       -2.6057496073
 C          2.6473022910        0.4830891305       -1.4303884878
 H          1.5681839310        0.5006513902       -1.4456803085
 H          2.8496584124        0.6924205205       -3.5409911476
 H          5.3207814524        0.6432840713       -3.4906622359
 H          6.5082466210        0.4063885318       -1.3374061251
 H          5.1873991896        0.2311998315        0.7740277540
 H          3.0076471692       -1.7531729992        2.3077458726
 H          1.6574411992       -3.4458800596        3.1700387318
 H         -0.4791827904       -4.6706328103        3.0488121204
 H         -2.1616662194       -4.0631065509        1.3539690092
 C         -1.9803848087       -2.1565743310       -0.5762941008
 H         -2.9261663087       -2.6407110613       -0.2952975714
 C         -1.5971547576       -2.6304827909       -1.9641127105
 C         -1.8571492368       -4.0569692510       -2.3404072906
 C         -2.6762383568       -2.9593982313       -2.9493628813
 H         -2.5189878662       -2.7081418513       -3.9873014212
 H         -3.7004949071       -2.8461252117       -2.6240338120
 H         -2.3291566971       -4.6919496512       -1.6059695909
 H         -1.1348834262       -4.5642700208       -2.9611440101
 H         -0.7002888975       -2.1628925207       -2.3468044699
 O         -0.5055778385        0.0651157994       -1.9215790499
