  62
        -98.93875231
 C         -1.1304835098       -1.7053691898        0.3761575091
 C         -1.4443606390       -0.4873877898        1.0284134096
 C         -2.7484983784        0.1307266713        0.7208021096
 C         -3.5478975687       -0.4675266176       -0.1816058108
 C         -4.8875136983       -0.0112918764       -0.6967955509
 C         -4.7727571571        1.1546067140       -1.6901381903
 C         -3.8448309464        2.2815218031       -1.2453781796
 H         -2.8412749367        1.8799217922       -1.0953822796
 H         -3.7902690556        3.0056771034       -2.0623534293
 C         -4.2910596960        3.0243179829        0.0119394906
 H         -5.3028543557        3.4072963937       -0.1379546894
 H         -3.6299712354        3.8853310423        0.1363947612
 C         -4.2622083269        2.2168136722        1.3126924503
 H         -5.1421095174        1.5853902129        1.4056236898
 H         -4.3074738665        2.9306167619        2.1403025506
 C         -3.0007351076        1.3848458111        1.5220372301
 H         -2.1177914171        2.0162250805        1.3797592806
 H         -2.9629591380        1.0703629406        2.5721913900
 H         -4.3920052373        0.7584810541       -2.6346803604
 H         -5.7735321268        1.5514034149       -1.8700857803
 H         -5.3312036688       -0.8658191558       -1.2125592813
 H         -5.5399358382        0.2505532138        0.1307188891
 O         -3.1895511195       -1.6215767176       -0.8109134513
 C         -1.9968702500       -2.2737997387       -0.5573426813
 O         -1.8509443907       -3.3206725785       -1.2174322918
 O         -0.6667564187        0.0686457692        1.8507317700
 C          0.2025789996       -2.3496005810        0.7189766290
 C          1.2145842101       -2.0207557313       -0.3511693706
 C          1.2253618298       -2.6700975807       -1.5814595109
 C          2.1536911103       -2.3211740610       -2.5450966406
 C          3.0811003110       -1.3220312118       -2.3069524699
 C          3.0754963113       -0.6650672024       -1.0814530396
 C          2.1455106308       -1.0186929321       -0.1137832300
 H          2.1492324811       -0.5052320226        0.8361754103
 N          4.0116440220        0.3392404767       -0.8125044590
 S          3.7780981927        1.5087102564        0.3443550015
 O          4.7574532936        2.5237048258        0.0142648722
 O          3.8959726120        0.9407068257        1.6642278913
 C          2.1469469633        2.1923556078        0.1054728715
 C          1.4923337535        2.7012260178        1.2081180416
 C          0.2703913140        3.3296673988        1.0354288917
 C         -0.2788050357        3.4299382798       -0.2327905784
 C          0.3835384241        2.9015064498       -1.3291922985
 C          1.6128395636        2.2842065888       -1.1639703685
 H          2.1460116935        1.8741674088       -2.0063115786
 H         -0.0528379656        2.9715234006       -2.3129126786
 H         -1.2300955352        3.9200064906       -0.3697749483
 H         -0.2463311858        3.7343586688        1.8913052018
 H          1.9451903732        2.5885803470        2.1800182417
 H          4.5703391224        0.6527278767       -1.5910352687
 H          3.8061096614       -1.0531772521       -3.0598102297
 H          2.1532888701       -2.8312816606       -3.4964658108
 H          0.4868396593       -3.4293651201       -1.7835712314
 H          0.5309477999       -1.8552614017        1.6437242793
 C          0.1062340084       -3.8387668710        0.9803939983
 C          1.2306310578       -4.5177287622        1.7013698183
 C         -0.0895940122       -4.3246452815        2.3836877581
 H         -0.7183461829       -5.1871192711        2.5467900176
 H         -0.1546772418       -3.5830928118        3.1668307384
 H          1.5117997170       -5.5140559923        1.3967724178
 H          2.0604769182       -3.9044798130        2.0203994187
 H         -0.3940150718       -4.3886157003        0.1944886580
