  62
        -98.94051443
 C          2.5100134361        1.0798816949       -0.2703746739
 C          2.2701406560       -0.3088998164       -0.1345824274
 C          3.3499316858       -1.0814004967        0.4939565372
 C          4.4568726899       -0.4548693867        0.9320471832
 C          5.6288001289       -1.1009374093        1.6201115679
 C          6.6562910577       -1.7168032611        0.6605572703
 C          6.2096822796       -3.0056341398       -0.0305867096
 H          7.0949369422       -3.4416891239       -0.4977059647
 H          5.8547214890       -3.7138505279        0.7187552160
 C          5.1319221315       -2.8066631672       -1.1053206616
 H          5.4013990965       -3.3723118758       -2.0000384243
 H          5.0934370566       -1.7532027989       -1.3916727518
 C          3.7312115866       -3.2570497941       -0.6901348641
 H          3.0433160300       -3.0376941074       -1.5105502674
 H          3.7266074768       -4.3369619569       -0.5263980829
 C          3.1949387464       -2.5703166371        0.5729786533
 H          2.1271194057       -2.7879501723        0.6578939912
 H          3.7007221504       -2.9594991204        1.4565179828
 H          6.9207219689       -0.9714314154       -0.0929760076
 H          7.5548449876       -1.9344104458        1.2424519547
 H          5.2716180419       -1.8640285188        2.3123250557
 H          6.1226767313       -0.3143338506        2.1947149230
 O          4.6321989111        0.8884414870        0.8148783814
 C          3.6755289975        1.6825585653        0.2054717455
 O          3.9719518107        2.8934261750        0.1524682599
 O          1.2163658285       -0.8813344240       -0.5181462286
 C          1.4680395684        1.9850377026       -0.9070518926
 C          0.2378677544        1.9813242417       -0.0318886337
 C          0.3287984984        2.5463490126        1.2380245263
 C         -0.7518663022        2.5270123059        2.0977676801
 C         -1.9469134198        1.9433815063        1.7123061388
 C         -2.0459688608        1.3726875438        0.4515845143
 C         -0.9585417018        1.3998117326       -0.4150534099
 H         -1.0463521136        0.9429695512       -1.3880150285
 N         -3.2598022177        0.7934072315        0.0340504981
 S         -4.1057839597       -0.1641178663        1.1386951211
 O         -4.7811885422        0.7029146700        2.0720836765
 O         -3.2330578103       -1.1592864381        1.7214272601
 C         -5.2986456378       -0.9304822787        0.0591744149
 C         -6.4967222999       -0.2847258598       -0.1795823741
 C         -7.4110180877       -0.8673940524       -1.0427583071
 C         -7.1131495291       -2.0780177209       -1.6503328853
 C         -5.9067487746       -2.7148481636       -1.4000831777
 C         -4.9874813991       -2.1372150418       -0.5384648300
 H         -4.0415422157       -2.6019004344       -0.3085339879
 H         -5.6786139141       -3.6572553424       -1.8715935687
 H         -7.8262573482       -2.5304682686       -2.3212236794
 H         -8.3509333884       -0.3769353268       -1.2381244007
 H         -6.6869450390        0.6498851995        0.3214454133
 H         -3.1505054601        0.2983093774       -0.8412931962
 H         -2.7935939419        1.9109204381        2.3784931493
 H         -0.6660124180        2.9668044115        3.0803931174
 H          1.2663799230        2.9918467429        1.5431713666
 H          1.8941314392        2.9975696868       -0.8863889545
 C          1.2113965389        1.5924908794       -2.3461482326
 C          0.5751504315        2.5754061281       -3.2811734838
 C          2.0256552471        2.2297695554       -3.4300235792
 H          2.3287844438        1.6232146198       -4.2702693563
 H          2.7615285233        2.9633239504       -3.1341844987
 H         -0.1173558036        2.2093223973       -4.0237990535
 H          0.3236231806        3.5474529746       -2.8848979599
 H          0.9677268706        0.5432117639       -2.4619956947
