  62
        -98.92866723
 C          2.3185630264        0.8761408223        0.2953580852
 C          2.4714046911       -0.5287416600        0.4165586357
 C          3.7188819644       -1.1069845868       -0.1035298588
 C          4.6280729134       -0.2920580083       -0.6681900028
 C          5.9816615939       -0.7063816620       -1.1715567945
 C          6.9472089792       -0.8998382417        0.0151296057
 C          7.4208375920       -2.3396819307        0.2144029643
 H          8.1704997159       -2.5748846102       -0.5439238811
 H          7.9104127522       -2.3908767643        1.1892127424
 C          6.3331199179       -3.4159435090        0.1462313327
 H          6.7639305032       -4.3301287335        0.5600273486
 H          6.0921457242       -3.6297237451       -0.8960895876
 C          5.0312466594       -3.1034090114        0.8955436338
 H          5.2092912122       -2.3832801004        1.6945468940
 H          4.6820796335       -4.0231002542        1.3695465953
 C          3.8825830282       -2.5980067866        0.0022587655
 H          3.9828103572       -3.0261851221       -0.9991688677
 H          2.9342043383       -2.9535486554        0.4165599733
 H          7.8253285920       -0.2674490838       -0.1234326711
 H          6.4485587116       -0.5507269171        0.9217782067
 H          5.8938317507       -1.6244105354       -1.7481906469
 H          6.3402271412        0.0867302560       -1.8277918729
 O          4.4446850220        1.0472277043       -0.7764936392
 C          3.2933106899        1.6717421396       -0.3084230943
 O          3.2857209077        2.9008815503       -0.4962894992
 O          1.5987702729       -1.2688702912        0.9493967577
 C          1.0344141681        1.4689526805        0.8466246404
 C         -0.0354630022        1.5380728573       -0.2136901933
 C          0.2180617159        2.0998946937       -1.4614194457
 C         -0.7787761586        2.1557673163       -2.4179620913
 C         -2.0398683354        1.6522601724       -2.1524108931
 C         -2.3060744740        1.0942933195       -0.9071316032
 C         -1.3031833970        1.0408010991        0.0516279325
 H         -1.5152101677        0.5849717976        1.0070373100
 N         -3.5945213493        0.6232301748       -0.6021938427
 S         -3.7697787478       -0.7418694326        0.3773513182
 O         -3.5379059663       -0.3620953217        1.7478115643
 O         -2.9720264834       -1.8312727540       -0.1389576666
 C         -5.5047191452       -1.0730108602        0.1324941649
 C         -5.8917485524       -2.0401383329       -0.7756647227
 C         -7.2442127381       -2.2669660165       -0.9778960419
 C         -8.1811619444       -1.5248360833       -0.2747665939
 C         -7.7773459104       -0.5582367219        0.6344530730
 C         -6.4269263320       -0.3274409166        0.8424567749
 H         -6.0658763886        0.4057010081        1.5445801114
 H         -8.5087510856        0.0145287047        1.1813871184
 H         -9.2328312735       -1.7031294158       -0.4342087403
 H         -7.5611609248       -3.0201762771       -1.6811150808
 H         -5.1276293619       -2.5982832086       -1.2926804417
 H         -4.1819047294        0.5525297182       -1.4226406492
 H         -2.8145279929        1.6934937265       -2.9030768241
 H         -0.5696902664        2.5921781655       -3.3831511825
 H          1.2011572024        2.4946562077       -1.6690237291
 H          0.6922391917        0.7426381698        1.6023155528
 C          1.2401757870        2.7987646929        1.5599121088
 C          0.7358059731        4.1065905606        1.0363826206
 C          0.0774588689        3.4756213266        2.2239751730
 H          0.2238727318        3.9184687508        3.1974849862
 H         -0.8978936250        3.0336629229        2.0813233286
 H          1.3586909752        4.9751246795        1.1850404875
 H          0.2030553443        4.1096017851        0.0989158842
 H          2.1872244562        2.8286524568        2.0893915560
