  62
        -98.94504721
 C         -1.1520560596       -1.8427941295       -0.6800266148
 C         -0.4726102021       -2.3623829866        0.4515975295
 C          0.9571503509       -2.6686722714        0.2530773534
 C          1.5285963247       -2.4525421106       -0.9439577301
 C          2.9771523707       -2.6763661772       -1.2657755200
 C          3.8139196818       -1.4125792979       -1.0263548490
 C          3.6088294092       -0.7787187742        0.3496012657
 H          4.2994722364        0.0645795307        0.4265437783
 H          2.6006531680       -0.3648261680        0.4180699392
 C          3.8284153160       -1.7300453215        1.5334986945
 H          4.4123028342       -1.2089374564        2.2951647319
 H          4.4075186051       -2.5987473056        1.2160619042
 C          2.5350301420       -2.1932547442        2.2077072894
 H          1.9033704509       -1.3245696375        2.4123795800
 H          2.7940781724       -2.6438685339        3.1701909555
 C          1.7086683343       -3.2254739473        1.4290090699
 H          2.3522319815       -4.0518720004        1.1170141117
 H          0.9479653598       -3.6201042567        2.1094506111
 H          4.8668543820       -1.6718303829       -1.1522568686
 H          3.5518708833       -0.6705385499       -1.7840702151
 H          3.3554229921       -3.4946820923       -0.6560583379
 H          3.0526370785       -2.9549560007       -2.3184582035
 O          0.8413365894       -1.9708041168       -2.0114611666
 C         -0.4990857157       -1.6403608721       -1.8993163562
 O         -0.9996270487       -1.1853785305       -2.9473075091
 O         -1.0081016602       -2.5809678367        1.5672796003
 C         -2.6045298515       -1.3883126247       -0.6692863846
 C         -2.6555454105        0.1060988872       -0.4646280563
 C         -3.4610532552        0.9147659203       -1.2573960675
 C         -3.4640997901        2.2876421838       -1.0854521801
 C         -2.6427300597        2.8801048368       -0.1432995350
 C         -1.8290745352        2.0811672607        0.6523398276
 C         -1.8607385881        0.7019088534        0.5050174339
 H         -1.2393898088        0.0907712404        1.1422848850
 N         -0.9656878275        2.6536557139        1.6039323054
 S          0.6434777031        2.1904629188        1.6333441039
 O          0.7597203134        0.8212539301        2.0568475989
 O          1.2852895268        3.1792239995        2.4715291014
 C          1.2068983949        2.3760794047       -0.0478194386
 C          1.8271937714        3.5520498793       -0.4220854211
 C          2.2227507221        3.7109938581       -1.7403590214
 C          1.9814900200        2.7024864681       -2.6617135466
 C          1.3533530086        1.5295592009       -2.2723346963
 C          0.9652003110        1.3626174177       -0.9527860926
 H          0.4771681219        0.4581069285       -0.6249735612
 H          1.1485877654        0.7408032651       -2.9803899370
 H          2.2835699330        2.8278101459       -3.6895179445
 H          2.7144581927        4.6200150782       -2.0472620559
 H          1.9980712368        4.3075034151        0.3277271081
 H         -1.0331771386        3.6597453535        1.6670597849
 H         -2.6260807205        3.9527458044       -0.0242014425
 H         -4.0965711965        2.9048859854       -1.7047835845
 H         -4.0727966424        0.4619333661       -2.0234543441
 H         -2.9840712164       -1.5893202224       -1.6847287873
 C         -3.4922567881       -2.1509861081        0.3011791252
 C         -3.9790700669       -1.5746594573        1.5929729552
 C         -4.9343034364       -1.7665395360        0.4555989606
 H         -5.6722531788       -2.5510972168        0.5261000860
 H         -5.2741684536       -0.8830099526       -0.0632356564
 H         -4.0359229477       -2.2357284760        2.4441959463
 H         -3.6790879521       -0.5698584778        1.8482570045
 H         -3.2684965065       -3.2123213678        0.3049656401
