  62
        -98.93851394
 C         -1.5317739662       -0.6132778844       -0.9776573440
 C         -1.6180251638       -1.4374905205        0.1707152921
 C         -0.7354031997       -2.6150825869        0.1781258827
 C          0.1032769226       -2.8217315615       -0.8521157546
 C          1.0502685212       -3.9807595888       -0.9752130312
 C          2.4357597350       -3.6634110416       -0.3980602776
 C          2.4038622593       -3.0599578841        1.0062084571
 H          1.9619328485       -2.0614558512        0.9723191801
 H          3.4401788921       -2.9333258178        1.3299282669
 C          1.6441046197       -3.8968380586        2.0443303484
 H          2.2298977309       -3.9207416942        2.9657788473
 H          1.5428876198       -4.9259776172        1.6959905897
 C          0.2659062613       -3.3397502220        2.4077004110
 H          0.3535654763       -2.2688849368        2.6118688220
 H         -0.0682073718       -3.8265933554        3.3283300585
 C         -0.8333894920       -3.5414243451        1.3565798068
 H         -1.7931947840       -3.3182024222        1.8318604036
 H         -0.8451534682       -4.5843707059        1.0307421045
 H          2.9396675897       -2.9577311292       -1.0630525372
 H          3.0188705963       -4.5866551423       -0.3826411917
 H          0.6233417247       -4.8402181061       -0.4614501628
 H          1.1568752057       -4.2203322219       -2.0350927779
 O          0.1930621068       -1.9786263824       -1.9137335415
 C         -0.6138866728       -0.8546802060       -1.9979304091
 O         -0.4236112324       -0.1610811916       -3.0181020727
 H         -0.1172094245        1.4828094723       -0.3405782452
 C         -0.8680909516        1.8006219684        0.3694006690
 C         -2.1996261912        1.4604521027        0.1366515070
 C         -3.1422608997        1.8916314792        1.0598139290
 C         -2.7540183920        2.6138060676        2.1776734107
 C         -1.4257923906        2.9022990144        2.4225232930
 C         -0.4703425593        2.4778592792        1.5065883919
 N          0.8999908269        2.7212665013        1.6996834865
 S          1.9672695114        1.4807298991        1.3293276406
 O          1.3748590677        0.1826348082        1.5455602605
 O          3.1494919352        1.7753972016        2.1141808670
 C          2.3559029008        1.7194023003       -0.3903432309
 C          2.5994491971        2.9999467066       -0.8461358508
 C          2.9243958687        3.1826575830       -2.1803984320
 C          3.0040101645        2.0894029367       -3.0300653544
 C          2.7653066757        0.8095012524       -2.5552767353
 C          2.4407323133        0.6212758037       -1.2217695248
 H          2.2295214982       -0.3570538561       -0.8185176483
 H          2.8112046657       -0.0411018056       -3.2162282801
 H          3.2493903626        2.2330518778       -4.0704553303
 H          3.1101096078        4.1761441251       -2.5558208065
 H          2.5229629015        3.8244983095       -0.1572268622
 H          1.1325914982        3.1616512304        2.5784613660
 H         -1.1274507510        3.4363048231        3.3118997023
 H         -3.5049616515        2.9352156131        2.8837894394
 H         -4.1842011146        1.6547413307        0.9470666172
 C         -2.4048812660        0.6314466662       -1.1092819093
 H         -1.9583096540        1.2052822623       -1.9390448302
 C         -3.7840515533        0.2149481391       -1.5955657755
 C         -4.9078714742       -0.2576553826       -0.7280678756
 C         -5.0334091125        1.0356411805       -1.4792991165
 H         -5.6956248278        1.0575188217       -2.3324039783
 H         -4.9925497643        1.9684839955       -0.9419626729
 H         -4.7563473281       -0.2553610405        0.3387880918
 H         -5.4828050032       -1.1052894306       -1.0730874742
 H         -3.6671404865       -0.3216759396       -2.5354352066
 O         -2.4006201281       -1.2203629605        1.1300187641
