  62
        -98.94304059
 C         -2.6528355507       -1.1829639908        0.2555247511
 C         -2.7680167202       -0.3284205722       -0.8677953512
 C         -3.7702149650        0.7406813762       -0.7586951845
 C         -4.5274838811        0.8486527617        0.3471188218
 C         -5.6010491322        1.8732104409        0.5938995399
 C         -5.0737418441        3.2132796058        1.1248377306
 C         -4.3321656040        4.0727125397        0.1001992455
 H         -4.9493646779        4.1869333879       -0.7915171171
 H         -4.2112557206        5.0639101638        0.5416618562
 C         -2.9486549322        3.5368592695       -0.2939076775
 H         -2.2250475591        4.3550372307       -0.2837882411
 H         -2.6151923306        2.8063201669        0.4469549451
 C         -2.8881879600        2.8972539299       -1.6811277287
 H         -1.8738979418        2.5223828942       -1.8410437868
 H         -3.0907182847        3.6535235655       -2.4428936192
 C         -3.8627988373        1.7293739984       -1.8821076892
 H         -4.8821363237        2.1025294000       -1.9773539063
 H         -3.5920103593        1.2113685620       -2.8054620258
 H         -5.9337365161        3.7804560208        1.4882087474
 H         -4.4199291782        3.0177683036        1.9778931727
 H         -6.1667259216        2.0403934685       -0.3230954086
 H         -6.2710563956        1.4457911213        1.3429474547
 O         -4.4074994957       -0.0075207660        1.3952650944
 C         -3.4658573342       -1.0203516684        1.3834345540
 O         -3.4541179008       -1.7135546142        2.4201920855
 H         -0.0650205512       -0.7391776271       -1.1634712546
 C          0.4167751927       -1.0358803533       -0.2435542514
 C         -0.2685151975       -1.8468836133        0.6496396366
 C          0.3620613714       -2.2116703546        1.8335160192
 C          1.6438474471       -1.7713811288        2.1132358041
 C          2.3201462717       -0.9557899755        1.2236569024
 C          1.6989432727       -0.5851636197        0.0381778090
 N          2.3603866093        0.2659902153       -0.8620995636
 S          3.9532303566       -0.0600610058       -1.2700181201
 O          4.1509181027        0.5634017627       -2.5602052893
 O          4.2455443691       -1.4724527188       -1.1881497938
 C          4.8952804036        0.8298482250       -0.0484669367
 C          4.6305388658        2.1742364119        0.1251298732
 C          5.3629519379        2.8848557099        1.0624289730
 C          6.3443171598        2.2438084092        1.8039841609
 C          6.6004224562        0.8943922130        1.6155806485
 C          5.8704924388        0.1775491985        0.6800436203
 H          6.0311425896       -0.8740753113        0.5033081132
 H          7.3640611141        0.3981300957        2.1926126966
 H          6.9127041899        2.7996302250        2.5328687100
 H          5.1662217470        3.9342937661        1.2120404019
 H          3.8615043044        2.6352074929       -0.4721643629
 H          1.8123997694        0.4899333118       -1.6801802234
 H          3.3180782637       -0.6090381941        1.4371106946
 H          2.1211309390       -2.0635025227        3.0362105672
 H         -0.1648637350       -2.8363895148        2.5402090112
 C         -1.6629641660       -2.3357420263        0.3351764567
 H         -1.9979536163       -2.9516903872        1.1803046540
 C         -1.6634563112       -3.1997634372       -0.9118394172
 C         -1.1646914623       -4.6089387285       -0.8186508194
 C         -2.6269483033       -4.3419503758       -1.0114227721
 H         -3.0714212301       -4.5586867553       -1.9712153373
 H         -3.2905950113       -4.5097137309       -0.1754177584
 H         -0.6002943089       -5.0109953057       -1.6461298046
 H         -0.8372630652       -4.9608070055        0.1480103012
 H         -1.4518157276       -2.6497943346       -1.8192452384
 O         -2.0847875865       -0.4279370050       -1.9231367815
