  62
        -98.94666683
 C          1.1749604263        1.2730156910        0.0779958962
 C          1.5695241507        0.2990259818        1.0281496019
 C          2.4116543425       -0.7919155615        0.5249118254
 C          2.7041842343       -0.8411402628       -0.7875372726
 C          3.6281622698       -1.8392325178       -1.4224513040
 C          5.0724909326       -1.3179218731       -1.4407822483
 C          5.5574993206       -0.7900788584       -0.0904802858
 H          4.9878531300        0.1051834158        0.1688989503
 H          6.5977794023       -0.4823841064       -0.2167578883
 C          5.4599949905       -1.8022638091        1.0596594006
 H          6.3895741494       -1.7726613989        1.6320208056
 H          5.3600130295       -2.8114088004        0.6585580176
 C          4.3215214732       -1.5329804059        2.0455279452
 H          4.3694135554       -0.4950081389        2.3845150427
 H          4.4722506619       -2.1696091564        2.9214731797
 C          2.9063937536       -1.8041611232        1.5188009035
 H          2.2196287390       -1.7511655856        2.3684220942
 H          2.8574288306       -2.8108769739        1.1000378650
 H          5.1392779821       -0.5064833864       -2.1691239377
 H          5.7265048133       -2.1263074013       -1.7728609284
 H          3.3039732662       -2.0088708103       -2.4506075257
 H          3.5821087982       -2.7769548797       -0.8718768192
 O          2.2210671405        0.0518943732       -1.6853954733
 C          1.4423366922        1.1279013670       -1.2838490847
 O          1.0648222766        1.8559742546       -2.2198168893
 O          1.2386635767        0.3473114325        2.2443484929
 C          0.3652500050        2.4635218138        0.5684965779
 C         -1.0761963628        2.2448197902        0.1842428580
 C         -1.7149729130        2.9239307663       -0.8441602617
 C         -3.0250203666        2.6190576678       -1.1757791349
 C         -3.7233644224        1.6411500574       -0.4904409958
 C         -3.0903787460        0.9572754357        0.5397799703
 C         -1.7798008301        1.2604759099        0.8694888478
 H         -1.2823129389        0.7198331343        1.6646194012
 N         -3.7901039068       -0.0606756347        1.2309155284
 S         -4.0707793036       -1.4508331568        0.3412194451
 O         -4.9152585738       -1.1203941105       -0.7772609233
 O         -4.5930880306       -2.4195619792        1.2771473521
 C         -2.4641096710       -1.9684741220       -0.2370203039
 C         -1.7804928297       -2.9378089802        0.4690923136
 C         -0.5209469606       -3.3185842482        0.0370219303
 C          0.0347535994       -2.7171521921       -1.0812879952
 C         -0.6561103198       -1.7313489093       -1.7685659272
 C         -1.9191032250       -1.3507742221       -1.3451078834
 H         -2.4857192372       -0.5941818883       -1.8635279083
 H         -0.2132234675       -1.2499979294       -2.6267287974
 H          1.0116839048       -3.0180820763       -1.4234202441
 H          0.0233106934       -4.0804954357        0.5713255677
 H         -2.2531484398       -3.3844953886        1.3292028205
 H         -3.3412957241       -0.3198196989        2.0992969878
 H         -4.7368003865        1.3810177100       -0.7491782505
 H         -3.5089216033        3.1514252905       -1.9806516167
 H         -1.1817811339        3.6792568179       -1.3972123141
 H          0.4259255847        2.4204136413        1.6651220787
 C          0.9375184915        3.7840228570        0.1026671572
 C          0.5186144813        5.0468449674        0.7923433773
 C          1.9052076406        4.5125115825        0.9845724523
 H          2.7291698299        5.0357614468        0.5229988949
 H          2.1524070972        4.0641512608        1.9359476040
 H          0.3893256553        5.9399332598        0.2004804552
 H         -0.1773668585        4.9589710828        1.6129514018
 H          1.1159669595        3.8229011526       -0.9645509579
