  62
        -98.94172009
 C         -2.3780220293       -1.0724157157        0.1258575291
 C         -3.6368099761       -0.9341964757        0.7691853726
 C         -4.6063073689       -0.0373633227        0.1281309631
 C         -4.2541573667        0.6120873591       -0.9958013080
 C         -5.1194035410        1.5984773699       -1.7241570592
 C         -4.8764713173        3.0286780940       -1.2221913121
 C         -4.9128178497        3.1640992923        0.3001104753
 H         -4.0695311221        2.6154745883        0.7263147792
 H         -4.7596809044        4.2195236487        0.5356258256
 C         -6.2157325596        2.6782089547        0.9505652170
 H         -6.5312051891        3.4140419469        1.6931786154
 H         -7.0042283185        2.6176238950        0.1995627822
 C         -6.1012986343        1.3355900555        1.6748068101
 H         -5.2515432813        1.3611774691        2.3615329898
 H         -7.0036206512        1.1955102201        2.2758432890
 C         -5.9558517738        0.1021537509        0.7747280315
 H         -6.7453548730        0.1019167856        0.0204209551
 H         -6.0804161266       -0.7839110311        1.4039940251
 H         -3.8941158719        3.3558014239       -1.5713112287
 H         -5.6296408076        3.6824085293       -1.6658773999
 H         -4.8762929277        1.5501425127       -2.7870447482
 H         -6.1643869797        1.3267215643       -1.5873814369
 O         -3.0357103963        0.4736951043       -1.5740993217
 C         -2.0625052780       -0.3605861286       -1.0332722441
 O         -1.0015051567       -0.3680309875       -1.6854724002
 O         -3.9358849042       -1.5365957111        1.8341431963
 C         -1.3630206306       -1.9868498214        0.7919024279
 C         -0.0545069456       -1.2610255955        0.9662996746
 C          0.0947968069       -0.3613956717        2.0175372929
 C          1.2673425625        0.3537459904        2.1722926610
 C          2.3098685318        0.1962375393        1.2755736030
 C          2.1613929355       -0.6820284986        0.2110747716
 C          0.9933241004       -1.4208224548        0.0743642828
 H          0.8833140414       -2.0929641936       -0.7623115233
 N          3.2062397468       -0.8422268890       -0.7133904957
 S          4.0286472956        0.5136182978       -1.2605856196
 O          3.2084464888        1.7021525602       -1.2373649284
 O          4.5714201444        0.1288140203       -2.5456691600
 C          5.3720684085        0.6770463179       -0.1001712803
 C          5.5981144731        1.8864659504        0.5271567895
 C          6.6562887559        1.9940773976        1.4163841629
 C          7.4668263389        0.8961928619        1.6603079085
 C          7.2286354752       -0.3109207946        1.0201282154
 C          6.1732200655       -0.4244339900        0.1295297976
 H          5.9567976932       -1.3425634929       -0.3903874766
 H          7.8611001556       -1.1626184458        1.2122817464
 H          8.2890574723        0.9821565001        2.3530135142
 H          6.8428854777        2.9322336498        1.9140114719
 H          4.9387807688        2.7120840769        0.3100500553
 H          2.9669042008       -1.4475958991       -1.4855888957
 H          3.2207073510        0.7625922393        1.3804577394
 H          1.3714118632        1.0445179575        2.9952809583
 H         -0.7259355086       -0.2228083966        2.7079325709
 H         -1.7855908129       -2.1730377236        1.7924232499
 C         -1.2017387419       -3.3495451705        0.1343869408
 C         -2.3960409925       -4.0796801887       -0.4012271531
 C         -1.3408732623       -3.5793995580       -1.3394249317
 H         -0.6864056046       -4.3027071899       -1.8045345763
 H         -1.5666812871       -2.7324491391       -1.9680860415
 H         -2.4731644952       -5.1425747910       -0.2293694985
 H         -3.3439165108       -3.5618363774       -0.3789371363
 H         -0.4579669462       -3.9521780771        0.6473296978
