  62
        -98.93513437
 C         -2.5539205356       -1.3809242359        0.2490275855
 C         -2.3420955396       -0.2617500647       -0.5930854931
 C         -3.4051111747        0.7643641687       -0.6052362175
 C         -4.5037440734        0.6006490142        0.1530092067
 C         -5.7474128489        1.4510624938        0.3050906356
 C         -5.7618040001        2.9045763305       -0.1618569682
 C         -4.8341552309        3.8387071127        0.6143355401
 H         -4.8626431361        4.8203418739        0.1363187305
 H         -5.2226830240        3.9514345503        1.6295510581
 C         -3.3803168088        3.3851070963        0.7265299392
 H         -2.8338412190        4.1474803107        1.2884242057
 H         -3.3262592892        2.4613704629        1.3065822742
 C         -2.6527376745        3.1794088890       -0.6011153979
 H         -1.5937651701        3.0198804958       -0.3763817181
 H         -2.7310287106        4.0838352238       -1.2078632257
 C         -3.1307584141        1.9813335144       -1.4405015407
 H         -3.9990115097        2.2390243556       -2.0424991860
 H         -2.3230214660        1.7107164984       -2.1271569809
 H         -6.7844762764        3.2648903591       -0.0208575207
 H         -5.5524267296        2.9618117927       -1.2259839088
 H         -6.0001665490        1.4153109884        1.3694113576
 H         -6.5444355225        0.9124424545       -0.2194351667
 O         -4.6728843208       -0.5058123907        0.9343834801
 C         -3.7093819828       -1.4921946839        1.0271388365
 O         -3.9950895814       -2.4066349362        1.8252889566
 O         -1.3291508392       -0.1065235871       -1.3236217911
 C         -1.5185318237       -2.4795093408        0.4372115280
 C         -0.1843427566       -1.8456590847        0.7391806302
 C          0.0750985041       -1.3804658077        2.0244903598
 C          1.2612959587       -0.7319703159        2.3131183055
 C          2.2037448468       -0.5190339246        1.3222057077
 C          1.9438082912       -0.9612760776        0.0323910258
 C          0.7667423017       -1.6431053508       -0.2473699887
 H          0.5681577744       -1.9740397937       -1.2547814523
 N          2.8845244199       -0.7285767928       -0.9852136929
 S          3.5710080645        0.7986512604       -1.1044450717
 O          2.7019816639        1.8341897169       -0.5962992138
 O          3.9797523043        0.9199205676       -2.4874722223
 C          5.0301803500        0.6770571769       -0.0879835570
 C          5.9027165068       -0.3683406863       -0.3194300412
 C          7.0477446733       -0.4685433936        0.4544362354
 C          7.3022492164        0.4747505428        1.4388988898
 C          6.4187762626        1.5206461561        1.6566718879
 C          5.2708670315        1.6256478135        0.8864996675
 H          4.5525413935        2.4184652344        1.0238102246
 H          6.6178765461        2.2537847955        2.4218332439
 H          8.1942418080        0.3945810478        2.0399248967
 H          7.7372377885       -1.2804465583        0.2880528585
 H          5.6699398978       -1.0781651054       -1.0953825402
 H          2.5739746064       -1.0448741437       -1.8929627179
 H          3.1216430840        0.0044400593        1.5346472987
 H          1.4517500304       -0.3805622093        3.3159104723
 H         -0.6728658578       -1.5230421623        2.7927410752
 H         -1.8482089688       -3.0235776833        1.3364358018
 C         -1.4526901750       -3.5034652073       -0.6858770616
 C         -2.7156107754       -4.0302890020       -1.2980841233
 C         -1.7815710454       -3.1893120326       -2.1127894678
 H         -1.2015166134       -3.6734670334       -2.8854575646
 H         -2.0739998814       -2.1807758843       -2.3577404958
 H         -2.7849441859       -5.0854354141       -1.5150879564
 H         -3.6449921669       -3.5883209485       -0.9686706573
 H         -0.6585540170       -4.2254834382       -0.5202142456
