  62
        -98.93229916
 C          2.4768538652        0.8595770763        0.0629230786
 C          2.9011547379       -0.2767982694        0.7937535216
 C          4.0563870790       -1.0308977218        0.2724570836
 C          4.6368823097       -0.6098684301       -0.8664301690
 C          5.8393567679       -1.1826987838       -1.5683043037
 C          7.1609201136       -0.8213822228       -0.8707582240
 C          7.1414054759       -0.9476214532        0.6504118259
 H          6.3478752517       -0.3149893230        1.0524589199
 H          8.0899471774       -0.5566595594        1.0281208783
 C          6.9768978258       -2.3686619617        1.1839872310
 H          7.0660309842       -2.3187354992        2.2722896424
 H          7.7964180890       -2.9878509240        0.8122806698
 C          5.6544668930       -3.0606916494        0.8475545297
 H          5.5819877787       -3.9491523906        1.4817376794
 H          5.6473953241       -3.4142243277       -0.1799042616
 C          4.4085172789       -2.2254941069        1.1257702998
 H          4.4452451492       -1.8584287160        2.1578803490
 H          3.5317233462       -2.8833053834        1.0864565082
 H          7.3976616382        0.2171927620       -1.1144709361
 H          7.9513823146       -1.4523024560       -1.2806335471
 H          5.8486599062       -0.7546621980       -2.5731136751
 H          5.7348207598       -2.2589962461       -1.6682597883
 O          4.1930968307        0.4867287810       -1.5414456096
 C          3.1125654471        1.2441560009       -1.1177938165
 O          2.8445700957        2.1983853285       -1.8696075926
 O          2.3401384341       -0.6473706491        1.8615566784
 C          1.2917585686        1.6232198366        0.6250984275
 C         -0.0017699309        1.0974919448        0.0571252970
 C         -0.2008113114        0.9969436866       -1.3164133637
 C         -1.3987214022        0.5196666821       -1.8160936943
 C         -2.4159019559        0.1273364773       -0.9630696686
 C         -2.2267738631        0.2194270068        0.4089189583
 C         -1.0243969255        0.7055499005        0.9080815654
 H         -0.8759416541        0.7650499817        1.9780798648
 N         -3.2466164300       -0.1956595731        1.2792948623
 S         -4.8129399401        0.3438965971        1.0106311489
 O         -4.8197319606        1.6303365313        0.3543538198
 O         -5.4593353092        0.2759020629        2.3026264314
 C         -5.5171408071       -0.8938422217       -0.0575919970
 C         -6.0687338189       -0.5244933819       -1.2686429604
 C         -6.6188704018       -1.5038488468       -2.0810385863
 C         -6.6083445897       -2.8277201470       -1.6695262511
 C         -6.0535013251       -3.1816995523       -0.4485414691
 C         -5.5032206121       -2.2074545442        0.3687328055
 H         -5.0668147791       -2.4409563081        1.3255518614
 H         -6.0477997932       -4.2122992090       -0.1319679856
 H         -7.0354471251       -3.5883271833       -2.3038936637
 H         -7.0516782299       -1.2305530751       -3.0299875270
 H         -6.0503866796        0.5165801272       -1.5497052823
 H         -3.0028964805       -0.1375181820        2.2573091220
 H         -3.3489787859       -0.2472946063       -1.3507202674
 H         -1.5417013364        0.4493849408       -2.8838111652
 H          0.5915174732        1.3013346255       -1.9837819160
 H          1.2961029278        1.3867330830        1.7013661092
 C          1.4286025945        3.1338569699        0.4977674948
 C          0.5860518948        3.9774072425       -0.4060856307
 C          0.3740477126        4.0317278536        1.0752717308
 H          0.6812354486        4.9148404157        1.6146917736
 H         -0.5183060251        3.5639949877        1.4652554855
 H          1.0638218527        4.8114790594       -0.8967023774
 H         -0.1659304477        3.4935196420       -1.0088765645
 H          2.4577712369        3.4550415623        0.6229583790
