  62
        -98.93606324
 C          2.4901846804        0.1267548959       -0.5937777717
 C          2.1841199807        0.6445724037        0.6884251281
 C          1.7816419081        2.0587941442        0.7259371499
 C          1.7193879854        2.7599425906       -0.4197466778
 C          1.3238334901        4.2045456856       -0.5272176919
 C         -0.1788552386        4.3687738500       -0.7870287103
 C         -1.0659331548        3.5729596553        0.1703210066
 H         -2.1031772697        3.8197325109       -0.0697249548
 H         -0.9425168940        2.5045998688       -0.0234859752
 C         -0.8061113442        3.8448840608        1.6586681396
 H         -1.7679867993        3.9462893002        2.1653697133
 H         -0.2738930450        4.7898567934        1.7783970947
 C         -0.0405259541        2.7297187909        2.3744112392
 H         -0.4895109100        1.7659782816        2.1218918554
 H         -0.1473728169        2.8774428748        3.4526872733
 C          1.4609660428        2.6504472922        2.0693327810
 H          1.9139801195        3.6391309505        2.1751154218
 H          1.9166024452        1.9812880132        2.8050694337
 H         -0.4243800582        5.4305772509       -0.7160509397
 H         -0.3937170842        4.0358155972       -1.8054644881
 H          1.6014497932        4.7167541496        0.3922313426
 H          1.8758921090        4.6460727369       -1.3592915855
 O          2.0046161028        2.2217970308       -1.6353359482
 C          2.3786591799        0.8940708334       -1.7510704783
 O          2.5973008379        0.5210229902       -2.9243145659
 H          0.3747697307       -1.2372311094       -1.1760324933
 C          0.5882595527       -1.9685779624       -0.4079211647
 C          1.9109908546       -2.1909290376       -0.0285568925
 C          2.1440262535       -3.1451077059        0.9527154607
 C          1.0888535103       -3.8240873180        1.5418088551
 C         -0.2204196178       -3.5600095089        1.1923455783
 C         -0.4696064556       -2.6129277409        0.2056638285
 N         -1.7831199350       -2.2941952787       -0.1914635839
 S         -2.0849369559       -0.6510853965       -0.4687062475
 O         -1.7535700343       -0.3427550305       -1.8389487763
 O         -1.4438170579        0.1478641250        0.5479851864
 C         -3.8562638938       -0.6051137489       -0.2662132845
 C         -4.6457324371       -1.1456393260       -1.2639619322
 C         -6.0219572097       -1.1454377880       -1.1027473785
 C         -6.5827368580       -0.6071499123        0.0463290757
 C         -5.7778433419       -0.0656439139        1.0370310989
 C         -4.3999787648       -0.0646343918        0.8831428975
 H         -3.7335128788        0.3483691678        1.6233609158
 H         -6.2161731088        0.3551598126        1.9275081904
 H         -7.6542391128       -0.6074702821        0.1689019312
 H         -6.6508202006       -1.5631367868       -1.8722539315
 H         -4.1643344120       -1.5430486824       -2.1423124069
 H         -2.4772531674       -2.6870908353        0.4310971344
 H         -1.0388099842       -4.0708714015        1.6765374196
 H          1.2965350623       -4.5574784185        2.3064964891
 H          3.1386046162       -3.3597591951        1.2977598581
 C          2.9133159247       -1.3297564130       -0.7612938881
 H          2.7783830682       -1.5446866589       -1.8358757454
 C          4.4105361789       -1.4221289771       -0.5075475957
 C          5.0541780318       -1.5973099414        0.8316675342
 C          5.1758017463       -2.6756160092       -0.2055373291
 H          6.1336177697       -2.7995352958       -0.6893104508
 H          4.6342639982       -3.5986081638       -0.0823428691
 H          4.4092015842       -1.7339474981        1.6841083687
 H          5.9271558582       -0.9987833473        1.0492858199
 H          4.9103509775       -0.7245077857       -1.1775976515
 O          2.2601534863       -0.0275756435        1.7483057553
