  62
        -98.93913030
 C         -1.8248764900       -1.1902897305        0.1011071084
 C         -3.1980659600       -1.1960446310        0.4596780384
 C         -4.0520862603       -0.2251536810       -0.2325664113
 C         -3.5138789005        0.6026573095       -1.1460312410
 C         -4.2559600408        1.6276431795       -1.9598039607
 C         -4.4635124812        2.9662893492       -1.2379795502
 C         -5.4962032012        2.9436053785       -0.1103333202
 H         -5.6980130715        3.9820415584        0.1597896401
 H         -6.4286897211        2.5174270784       -0.4817436004
 C         -5.0450994810        2.1853966282        1.1460182495
 H         -3.9607695009        2.0546327186        1.1223905895
 H         -5.2762542511        2.7797329779        2.0328059897
 C         -5.7044860106        0.8188293180        1.3330997091
 H         -5.2863244005        0.3559308078        2.2306021189
 H         -6.7775900206        0.9478655176        1.4903012291
 C         -5.4963458803       -0.1494655415        0.1610077087
 H         -6.1073272704        0.1519000586       -0.6896847512
 H         -5.8079841700       -1.1468997017        0.4806877984
 H         -3.5016844113        3.3036536994       -0.8450935901
 H         -4.7897734614        3.6920940994       -1.9863941800
 H         -5.2215584007        1.2235389594       -2.2654227508
 H         -3.6556872009        1.8079358600       -2.8543595806
 O         -2.1902448805        0.5894022399       -1.4511803010
 C         -1.3070422703       -0.2806342600       -0.8219573713
 O         -0.1227430103       -0.1290046496       -1.1747357413
 O         -3.6839195698       -1.9753771314        1.3209861581
 C         -0.9130816497       -2.1772858305        0.8088072580
 C          0.3486568501       -1.4839109002        1.2537803283
 C          0.2535286798       -0.4681090006        2.2015471986
 C          1.3717761696        0.2326260796        2.6097439688
 C          2.6137095897       -0.0634826499        2.0755082587
 C          2.7201050100       -1.0746281295        1.1310999384
 C          1.5978194702       -1.7864993597        0.7334306082
 H          1.7021599804       -2.5484547694       -0.0238569121
 N          4.0004423400       -1.3411515390        0.5734245283
 S          4.3525484898       -0.4021872884       -0.7920044014
 O          3.5528183399       -0.8332097783       -1.9190597915
 O          5.7825230298       -0.5235613279       -0.9851291814
 C          3.9413156193        1.2571729313       -0.3095951708
 C          2.6433805692        1.7033442510       -0.4643870607
 C          2.3361423288        2.9931107208       -0.0585893402
 C          3.3190585986        3.8042081109        0.4878585001
 C          4.6173749687        3.3383839212        0.6324249299
 C          4.9340504091        2.0504456014        0.2321935995
 H          5.9275625792        1.6421996217        0.3210370693
 H          5.3794465685        3.9723745013        1.0561863801
 H          3.0698448883        4.8057518407        0.8018070204
 H          1.3248960487        3.3515106305       -0.1694304501
 H          1.8960741993        1.0474422809       -0.8854149109
 H          4.0906470203       -2.3067461088        0.2811235280
 H          3.4958237495        0.4759711703        2.3796448489
 H          1.2772071094        1.0171331793        3.3446232391
 H         -0.7202364003       -0.2274488310        2.6064510387
 H         -1.4773195196       -2.4747991409        1.7085186879
 C         -0.6520118094       -3.4534258501        0.0225313376
 C         -1.6737045592       -3.9974688301       -0.9291997726
 C         -0.3820481594       -3.4473712195       -1.4515116624
 H          0.3502036008       -4.1390197892       -1.8436188826
 H         -0.3896275096       -2.4957983794       -1.9606883921
 H         -1.8286911989       -5.0653914901       -0.9605810129
 H         -2.5738719994       -3.4205582803       -1.0824007724
 H         -0.1085290792       -4.1864769802        0.6118681074
