  62
        -98.93274374
 C         -2.2860485582       -1.2553862383        0.1059698804
 C         -3.2214816018       -0.5863056562        0.9342618980
 C         -4.1103046341        0.3767388512        0.2710715323
 C         -3.9829510188        0.5952298991       -1.0499243981
 C         -4.8380593634        1.4958391166       -1.9017606482
 C         -4.7577481130        3.0039093529       -1.5958754466
 C         -5.8330682041        3.5113073721       -0.6270509358
 H         -6.1858521595        4.4850077188       -0.9728962394
 H         -6.6887627925        2.8362218701       -0.6669807163
 C         -5.3901348325        3.6891588809        0.8283739591
 H         -6.2875621985        3.8070111099        1.4394866739
 H         -4.8104923388        4.6111399145        0.9151438112
 C         -4.5408379081        2.5590053437        1.4104781612
 H         -3.5231992822        2.6247608946        1.0170871920
 H         -4.4631818058        2.7108699736        2.4890864754
 C         -5.0756539551        1.1411747109        1.1295174742
 H         -5.1684152725        0.5867806330        2.0656610641
 H         -6.0561122505        1.1862760643        0.6576828284
 H         -3.7629034352        3.2474259114       -1.2235511504
 H         -4.8831397401        3.5253914648       -2.5460707527
 H         -5.8767355662        1.1662834576       -1.8252538803
 H         -4.5075736438        1.3229407989       -2.9279620658
 O         -3.0416003590       -0.0348835947       -1.8025678506
 C         -2.1591374485       -0.9563579698       -1.2516523174
 O         -1.3384721485       -1.4140721010       -2.0665504154
 O         -3.3106238874       -0.7863003667        2.1759247725
 C         -1.3532527984       -2.2561178507        0.7632742921
 C          0.0750875795       -1.9884373437        0.3577487295
 C          0.9062422649       -2.9386520109       -0.2189085027
 C          2.2106300153       -2.6174088146       -0.5531919129
 C          2.7127683394       -1.3502951693       -0.3246266265
 C          1.8915573547       -0.3915156508        0.2549921412
 C          0.5900771640       -0.7198506404        0.5993033560
 H         -0.0498745593        0.0285015799        1.0529747307
 N          2.3867830722        0.9069528049        0.4729055954
 S          3.8437138491        1.0724735796        1.2910937352
 O          4.0544060068       -0.0138410394        2.2200318648
 O          3.8081131400        2.4034048069        1.8577059500
 C          5.0716255755        1.0231837467        0.0033854061
 C          6.1054409637        0.1099686982        0.0723721341
 C          7.0559283862        0.0969883067       -0.9366673022
 C          6.9567441861        0.9932233423       -1.9898223896
 C          5.9135346832        1.9058372433       -2.0427020133
 C          4.9606838226        1.9248542691       -1.0368355138
 H          4.1365460149        2.6186996142       -1.0393000856
 H          5.8393861108        2.6011177523       -2.8633553407
 H          7.6964587122        0.9805947701       -2.7746614728
 H          7.8674515801       -0.6116891296       -0.8976341368
 H          6.1378708185       -0.5716329110        0.9073455882
 H          1.6988355510        1.5462586179        0.8435477506
 H          3.7248567656       -1.0953838352       -0.5931366134
 H          2.8435481699       -3.3647497809       -1.0068488698
 H          0.5285499069       -3.9260494106       -0.4262210775
 H         -1.4386297176       -2.0365582949        1.8416267685
 C         -1.7707224684       -3.7088216051        0.5895981229
 C         -3.2015663365       -4.0784718133        0.3397447545
 C         -2.1785307464       -4.2749251581       -0.7364350118
 H         -1.8772888081       -5.2842499945       -0.9761368448
 H         -2.1841879209       -3.6073975123       -1.5833556205
 H         -3.6005023451       -4.9486432456        0.8391783553
 H         -3.9147474834       -3.2746336303        0.2271927677
 H         -1.2163768511       -4.3685514406        1.2502923529
