  62
        -98.94091017
 C          2.3882222401        1.2655117705        0.1385133303
 C          2.2700728502       -0.1427063994        0.0196144594
 C          3.3825726102       -0.9250780996        0.5811602791
 C          4.4062206000       -0.3050736199        1.1930959896
 C          5.5982993200       -0.9688269702        1.8272626194
 C          6.7192320202       -1.3183203895        0.8387372694
 C          6.4210898404       -2.4914498990       -0.0958568814
 H          7.3623210805       -2.7653415586       -0.5765915814
 H          6.0943288704       -3.3495984594        0.4923434780
 C          5.3825396205       -2.1861529584       -1.1842725814
 H          5.2649279505       -1.1044733284       -1.2824795207
 H          5.7426694107       -2.5570797378       -2.1465102715
 C          4.0092284706       -2.8131812587       -0.9426932620
 H          3.3426806807       -2.5052116682       -1.7527063119
 H          4.0921573406       -3.9019104086       -0.9738623026
 C          3.3565317203       -2.4112638395        0.3865332382
 H          3.8543030102       -2.9126398800        1.2163992780
 H          2.3096188904       -2.7256148396        0.3655274978
 H          6.9521334602       -0.4306208092        0.2461331399
 H          7.6055034801       -1.5669664398        1.4269334093
 H          5.2792470100       -1.8701329306        2.3515679488
 H          5.9933917798       -0.2617262106        2.5598705299
 O          4.4609001499        1.0464445700        1.3272696205
 C          3.4678998399        1.8567318502        0.8033713708
 O          3.6536205598        3.0744970101        0.9981793716
 O          1.3050696603       -0.7377342091       -0.5263887011
 C          1.3309277701        2.2241348408       -0.3868417293
 C         -0.0337809200        1.7825004304        0.0777864502
 C         -0.4291490802        2.0522698696        1.3842548303
 C         -1.6572848002        1.6231758592        1.8513469799
 C         -2.5108048900        0.9075201396        1.0297185193
 C         -2.1148375198        0.6138949004       -0.2678792008
 C         -0.8914964598        1.0691869608       -0.7429932303
 H         -0.5868619696        0.8246643215       -1.7486072005
 N         -2.9650945896       -0.1187024591       -1.1107900814
 S         -3.8222542796       -1.4219600396       -0.4981974623
 O         -3.1394833797       -2.0663620002        0.5992826874
 O         -4.1145532994       -2.2491583689       -1.6490978929
 C         -5.3394106298       -0.6833091600        0.0757104379
 C         -6.0377896197        0.1317750505       -0.7935833417
 C         -7.2247285398        0.7051469801       -0.3666192315
 C         -7.6934012900        0.4530152993        0.9141669282
 C         -6.9833923000       -0.3708745212        1.7737443478
 C         -5.7946407499       -0.9466534408        1.3526504577
 H         -5.2066672500       -1.5893886012        1.9888003774
 H         -7.3491539502       -0.5667134018        2.7689535277
 H         -8.6172375101        0.9010384790        1.2445266384
 H         -7.7797023098        1.3462165405       -1.0325036812
 H         -5.6415359496        0.3006844611       -1.7808018515
 H         -2.5485651595       -0.3488199385       -2.0013660915
 H         -3.4625958401        0.5560601293        1.3929779389
 H         -1.9530990704        1.8430568985        2.8659970100
 H          0.2453137597        2.5946912192        2.0329095007
 H          1.5580045499        3.1865955205        0.0983997613
 C          1.3933909103        2.4714500017       -1.8873499592
 C          2.7170002704        2.6396476622       -2.5704923888
 C          1.8645677505        1.4454777923       -2.8715920097
 H          1.3725208407        1.3981855929       -3.8325475898
 H          2.1720598805        0.4830688621       -2.4943647002
 H          2.8169614404        3.4070892527       -3.3230055084
 H          3.6044142503        2.4967353119       -1.9707896888
 H          0.5934740703        3.1275443518       -2.2173492589
