  62
        -98.94579488
 C          1.0637579334        1.7006036651        0.0556107788
 C          2.2521890560        1.3740750262        0.7545688309
 C          3.0912384333        0.3261271349        0.1594907947
 C          2.6880660089       -0.2700666468       -0.9768463377
 C          3.4411015595       -1.3586849283       -1.6862040216
 C          3.0119970807       -2.7570570472       -1.2201627494
 C          2.9430939353       -2.9144153403        0.2991274310
 H          2.1490728714       -2.2781636755        0.7010719470
 H          2.6489791329       -3.9464581352        0.5059585249
 C          4.2585847273       -2.6046835720        1.0273749519
 H          4.4297759333       -3.3777804923        1.7794997238
 H          5.0904039037       -2.6465483391        0.3227392676
 C          4.2812182065       -1.2612184008        1.7586057155
 H          3.3888541777       -1.1723024637        2.3846177723
 H          5.1492809926       -1.2505917714        2.4234592929
 C          4.3721235585       -0.0176105021        0.8651466591
 H          5.1894748683       -0.1371526804        0.1506429467
 H          4.5991994402        0.8379089847        1.5082042782
 H          2.0247683722       -2.9791305165       -1.6308942806
 H          3.7166454074       -3.4854049064       -1.6263472576
 H          3.2476188262       -1.2670880802       -2.7564161997
 H          4.5064293000       -1.2214333140       -1.5092195541
 O          1.5242519119        0.0413756027       -1.5994705682
 C          0.6665241295        1.0095773796       -1.0896893409
 O         -0.3820284579        1.1495932507       -1.7441549309
 O          2.5986498420        1.9394444715        1.8274374199
 C          0.1686530345        2.7719242557        0.6495257332
 C         -1.2593665625        2.2895261824        0.7137185389
 C         -2.3492057873        3.0360103464        0.2849837954
 C         -3.6334041579        2.5326915239        0.4015629296
 C         -3.8578377864        1.2760852568        0.9316254000
 C         -2.7732276279        0.5187300596        1.3589283706
 C         -1.4922316628        1.0335330611        1.2613773004
 H         -0.6598826105        0.4343775209        1.6020827307
 N         -2.9533501280       -0.7685091903        1.9008946813
 S         -2.0117427958       -2.0154506961        1.3103710678
 O         -2.7067423714       -3.2160242866        1.7297806056
 O         -0.6535923000       -1.8864911854        1.7767775086
 C         -2.0699116028       -1.8902983882       -0.4669633396
 C         -3.2901023668       -1.7336108428       -1.0940682458
 C         -3.3250515924       -1.6477224887       -2.4755582280
 C         -2.1480846229       -1.7256528676       -3.2037945970
 C         -0.9335575982       -1.8952445506       -2.5606868277
 C         -0.8939027273       -1.9767439384       -1.1788220577
 H          0.0299656989       -2.0903043845       -0.6343117253
 H         -0.0155672506       -1.9433675742       -3.1243884578
 H         -2.1760369522       -1.6498825672       -4.2793734436
 H         -4.2682839697       -1.5145382984       -2.9805899318
 H         -4.1920501824       -1.6840595486       -0.5060805847
 H         -3.9184305275       -1.0577372538        1.9739837873
 H         -4.8593889233        0.8824746943        1.0161812467
 H         -4.4705808660        3.1245927453        0.0645347264
 H         -2.1954589487        4.0076125053       -0.1542452427
 H          0.5276258797        2.8773347478        1.6881994715
 C          0.3188258535        4.1416375151        0.0020822544
 C          1.5429069553        4.5009781848       -0.7847749554
 C          0.2273572417        4.3350344584       -1.4811361938
 H         -0.2681041547        5.2197657204       -1.8534837685
 H          0.0721989300        3.4562859445       -2.0866092518
 H          1.9479464156        5.4957738479       -0.6734308622
 H          2.2948607086        3.7370795165       -0.9211327741
 H         -0.0936811026        4.9315008308        0.6223814221
