  62
        -98.94431747
 C         -2.3891844038       -1.1330680755        0.2434991123
 C         -2.3951248995        0.1733693801       -0.3027283880
 C         -3.4294998579        1.0761631860        0.2199953610
 C         -4.2736993208        0.6494509298        1.1764985533
 C         -5.3640557834        1.4591453487        1.8242348177
 C         -6.6737398883        1.4967910835        1.0247773590
 C         -6.6393331882        2.3541599632       -0.2409534544
 H         -7.6713176748        2.4684602599       -0.5784765035
 H         -6.2652582433        3.3484825073        0.0049631360
 C         -5.8092744882        1.7588622973       -1.3867744981
 H         -5.6404762394        0.6958272179       -1.2004168511
 H         -6.3703631952        1.8352521949       -2.3208603619
 C         -4.4597470356        2.4406303662       -1.6131432690
 H         -4.6187866575        3.4738831489       -1.9298490376
 H         -3.9418509374        1.9173711070       -2.4210141808
 C         -3.5396301013        2.4431799169       -0.3852737813
 H         -2.5389407540        2.7464198458       -0.7043648704
 H         -3.9004719552        3.1586173350        0.3535697259
 H         -6.9534518461        0.4735059278        0.7642634389
 H         -7.4468807247        1.8946790520        1.6859741003
 H         -5.5641196877        0.9920154571        2.7909170947
 H         -5.0115703190        2.4765148174        1.9965179385
 O         -4.2153634405       -0.6055356582        1.6958760151
 C         -3.2841115629       -1.5236592540        1.2418288876
 O         -3.3496322173       -2.6379770434        1.7983744712
 H          0.6393431934       -1.0430145052       -1.7318045864
 C          0.8974451996       -1.1209069001       -0.6877790448
 C          0.0006877352       -1.6817723791        0.2059053529
 C          0.3503780847       -1.7427606808        1.5526623477
 C          1.5686760963       -1.2582614713        1.9875341010
 C          2.4620173963       -0.6955913995        1.0913967927
 C          2.1157546593       -0.6153614547       -0.2497160301
 N          3.0124741991       -0.0471203977       -1.1687588173
 S          3.8108648051        1.3698006171       -0.7599084444
 O          3.0385955528        2.1875751070        0.1464519566
 O          4.1715573426        1.9743633114       -2.0240804178
 C          5.2933107655        0.7966555201        0.0459816977
 C          6.0545117144       -0.1643298880       -0.5903551563
 C          7.2158240452       -0.6103893533        0.0199069873
 C          7.5972299046       -0.0884146389        1.2470038395
 C          6.8249758337        0.8791811967        1.8709097639
 C          5.6611545495        1.3285180450        1.2663251918
 H          5.0257164610        2.0741004308        1.7176131553
 H          7.1227686291        1.2846123854        2.8245871628
 H          8.5012992202       -0.4378171260        1.7201499513
 H          7.8187153798       -1.3631341488       -0.4619658915
 H          5.7252872830       -0.5432169898       -1.5433136388
 H          2.6477597468        0.0048532227       -2.1091099823
 H          3.4086675587       -0.3040958858        1.4260068381
 H          1.8270646742       -1.3150229667        3.0341161777
 H         -0.3560191046       -2.1659368560        2.2540121338
 C         -1.3675807393       -2.1641116239       -0.2095889036
 H         -1.5919024164       -3.0790383546        0.3550679226
 C         -1.4994140707       -2.4596214866       -1.6885650269
 C         -0.8674932070       -3.6957221308       -2.2524535250
 C         -2.3582031054       -3.6048355868       -2.1297140798
 H         -2.9449709312       -3.4913915747       -3.0290381212
 H         -2.8462632630       -4.1868487765       -1.3615575438
 H         -0.3411060459       -4.3415942951       -1.5662790555
 H         -0.4298471003       -3.6491811674       -3.2380450743
 H         -1.5133224483       -1.5676046417       -2.3031650683
 O         -1.5883197233        0.5736237806       -1.1831332662
