  62
        -98.94533940
 C          2.3420915958        0.0158967023       -0.3159411510
 C          1.4086955446       -0.7576411158       -1.0479328563
 C          1.3600800384       -2.1888829344       -0.7183061181
 C          2.0964858087       -2.6703805751        0.2980520024
 C          2.1686632138       -4.1045989358        0.7475995202
 C          1.0226658643       -4.5299525641        1.6749201251
 C         -0.3257639119       -4.7398471319        0.9858894372
 H         -0.1940765393       -5.3950405129        0.1237371245
 H         -0.9704929998       -5.2604484827        1.6968916790
 C         -1.0249820406       -3.4457258779        0.5483776154
 H         -2.0826024452       -3.4932620192        0.8215197267
 H         -0.6060194254       -2.5910269658        1.0853557641
 C         -0.9626989203       -3.1614922989       -0.9512928880
 H         -1.5063024466       -3.9381677267       -1.4949866505
 H         -1.4685467836       -2.2098357065       -1.1267069566
 C          0.4556003555       -3.0703914843       -1.5288249605
 H          0.8880440925       -4.0682309420       -1.6092726252
 H          0.3867072666       -2.6382860724       -2.5304702463
 H          0.9136904241       -3.7815106699        2.4636349222
 H          1.3166103824       -5.4709895975        2.1461652310
 H          2.1954543977       -4.7610856875       -0.1229871063
 H          3.1099196356       -4.2098721298        1.2917099009
 O          2.9119533899       -1.8779880691        1.0437904887
 C          3.0609577718       -0.5351494718        0.7488677222
 O          3.8672632214        0.0624090685        1.4925044065
 H         -0.0667385437        1.2112225242       -0.3003817596
 C          0.2973246856        2.0370126951        0.2836971781
 C          1.6490627869        2.3429923318        0.2606254193
 C          2.1025618575        3.4222624016        1.0086977668
 C          1.2197206071        4.1616392257        1.7760165232
 C         -0.1184014857        3.8171893816        1.8384971269
 C         -0.5816170474        2.7375374559        1.0937494612
 N         -1.9279856970        2.3463319295        1.1487854229
 S         -2.3653015313        0.7234495247        1.2771758226
 O         -3.3114163077        0.6747003042        2.3756666209
 O         -1.2079397614       -0.1262446947        1.4004976356
 C         -3.2607345785        0.4200921213       -0.2352835629
 C         -2.5920318523        0.1779324101       -1.4185175132
 C         -3.3312225888       -0.0353443856       -2.5729368009
 C         -4.7158094024        0.0009324591       -2.5309594108
 C         -5.3735359824        0.2497711359       -1.3359436303
 C         -4.6415863742        0.4618551546       -0.1795539454
 H         -5.1103897141        0.6489779779        0.7725289278
 H         -6.4507004564        0.2778821864       -1.3012414321
 H         -5.2826014957       -0.1669236262       -3.4331711592
 H         -2.8115637808       -0.2303364118       -3.4975851330
 H         -1.5136568417        0.1444874255       -1.4446882011
 H         -2.4879062014        2.8990846151        1.7821239965
 H         -0.8003625349        4.3731637420        2.4644222851
 H          1.5810040783        5.0002121551        2.3520384922
 H          3.1541812492        3.6681019837        1.0036074483
 C          2.5983111788        1.4967960592       -0.5548597111
 H          3.6141731602        1.6876468532       -0.1803459353
 C          2.5444412238        1.8985398871       -2.0160709316
 C          3.3198739557        3.0953665002       -2.4740299909
 C          3.7598026058        1.7191857782       -2.8728724374
 H          3.6249370333        1.4063667998       -3.8971245844
 H          4.6439882450        1.3103034412       -2.4051724578
 H          2.8823340253        3.7334876142       -3.2261306175
 H          3.9116378816        3.6219332731       -1.7407610685
 H          1.5819740657        1.7149607998       -2.4743082627
 O          0.6514671271       -0.3069730693       -1.9491688099
