  62
        -98.94416368
 C          2.1983710476        0.7747313510       -0.0589162111
 C          2.9122542593        0.1222810703        0.9736192947
 C          3.6955711175       -1.0499981900        0.5675445216
 C          3.6636252330       -1.4624041977       -0.7130730498
 C          4.3839336112       -2.6577282632       -1.2757951778
 C          5.8446301378       -2.3831022117       -1.6587796500
 C          6.8060354254       -2.2179181476       -0.4811654875
 H          6.7004443407       -3.0670740440        0.1948278724
 H          7.8187800398       -2.2495162992       -0.8877611326
 C          6.6296772096       -0.9091282224        0.3014172960
 H          6.0556411473       -0.1997116497       -0.2991054747
 H          7.6078570681       -0.4576773819        0.4815007812
 C          5.9490505581       -1.0697945770        1.6608227553
 H          5.8422236109       -0.0789845634        2.1099042351
 H          6.5805920575       -1.6707790566        2.3188675219
 C          4.5577683987       -1.7137872526        1.5985409567
 H          4.6456787114       -2.7805978213        1.3932843356
 H          4.0749407783       -1.5829536977        2.5704010636
 H          6.1863686920       -3.2263242345       -2.2633536997
 H          5.8788792793       -1.4890751633       -2.2855157287
 H          4.3422660645       -3.4809230028       -0.5618391200
 H          3.8410273880       -2.9506714268       -2.1769944863
 O          2.9297992990       -0.8318373279       -1.6681654995
 C          2.1954084918        0.3087932805       -1.3740136479
 O          1.5918987180        0.7954625670       -2.3476686743
 O          2.8873289050        0.4951858050        2.1785193630
 C          1.3831418309        2.0096293431        0.2754554636
 C         -0.0741902798        1.7874765208       -0.0488071638
 C         -0.8659510555        2.7328619104       -0.6869636065
 C         -2.2018278622        2.4725986494       -0.9405640775
 C         -2.7767747666        1.2730821101       -0.5648650340
 C         -1.9982950274        0.3252640308        0.0870785131
 C         -0.6627244813        0.5916335776        0.3450167572
 H         -0.0584397152       -0.1481399402        0.8569910581
 N         -2.5705844419       -0.9023528622        0.4657841050
 S         -3.9940972168       -0.8709964526        1.3568947455
 O         -4.0926003710        0.3307362794        2.1526223092
 O         -4.0148058032       -2.1242023264        2.0795204224
 C         -5.2752080647       -0.8926538188        0.1209805226
 C         -6.2295339191        0.1055171197        0.1001745372
 C         -7.2219392664        0.0632790929       -0.8668539929
 C         -7.2426422891       -0.9711732807       -1.7897332125
 C         -6.2783044369       -1.9675216506       -1.7533752688
 C         -5.2840507248       -1.9316826070       -0.7888834572
 H         -4.5186085984       -2.6870534686       -0.7244098204
 H         -6.2974577762       -2.7702305772       -2.4728608843
 H         -8.0148999810       -1.0016470890       -2.5420331011
 H         -7.9726556258        0.8365219713       -0.8967670234
 H         -6.1700158490        0.8925141922        0.8349778938
 H         -1.9107374921       -1.5462392594        0.8775986065
 H         -3.8142256570        1.0643953968       -0.7684467683
 H         -2.8029317815        3.2144409627       -1.4436672106
 H         -0.4366168777        3.6734214685       -0.9902581898
 H          1.4708373883        2.1308103681        1.3662649770
 C          1.9757757210        3.2302863774       -0.3974388959
 C          1.8475473448        4.5822014713        0.2365963300
 C          3.1734297182        3.8845680611        0.2213357379
 H          3.9496431133        4.2607532347       -0.4280187871
 H          3.5436103808        3.4661121686        1.1461559646
 H          1.7157029725        5.4416390403       -0.4032605574
 H          1.3199074960        4.6458332025        1.1763440722
 H          1.9444858268        3.1637386337       -1.4791787491
