  62
        -98.93666980
 C          2.3178768854        0.6230909212        0.0399412805
 C          3.3319498875        0.2836430386        0.9693269349
 C          4.2408998451       -0.8080294856        0.5847344198
 C          4.0584191265       -1.4312465521       -0.5919780428
 C          4.8247739264       -2.5954997241       -1.1685516461
 C          6.3521184499       -2.5834642333       -1.0206782354
 C          6.9973190809       -1.1906576146       -1.0654042926
 H          7.8086053697       -1.1986170047       -1.7957268879
 H          6.2674879099       -0.4504189510       -1.3978002895
 C          7.5825882156       -0.7602774984        0.2817692581
 H          8.1074327243       -1.6102599591        0.7233045852
 H          8.3216576208        0.0257128708        0.1086892609
 C          6.5724267436       -0.2168646012        1.2915157181
 H          6.2048533376        0.7579907108        0.9597949750
 H          7.0954675426       -0.0563486452        2.2373229142
 C          5.3495148254       -1.1116808796        1.5512567188
 H          5.6207508557       -2.1643764289        1.5351221852
 H          4.9594346467       -0.8675209641        2.5430250776
 H          6.6324005776       -3.0747003601       -0.0900017113
 H          6.7513958382       -3.1958478329       -1.8309861524
 H          4.4296205749       -3.5140360518       -0.7249163713
 H          4.5599151084       -2.6115313436       -2.2285269936
 O          3.0620901067       -1.0793614311       -1.4522601016
 C          2.1720118733       -0.0552236528       -1.1688800408
 O          1.3285822586        0.1416208535       -2.0647257553
 O          3.4676690914        0.8633051663        2.0793331088
 C          1.3509706219        1.7349341429        0.4126973042
 C          0.0000258105        1.1203332482        0.6838003132
 C         -0.2528100321        0.5625851995        1.9342238210
 C         -1.4630863238       -0.0478273524        2.2035374441
 C         -2.4435298662       -0.1251904129        1.2294425536
 C         -2.2002343153        0.4243674769       -0.0216600246
 C         -0.9895716107        1.0531847111       -0.2844590804
 H         -0.8089326017        1.4639626146       -1.2653707996
 N         -3.1775484225        0.3226050306       -1.0248902490
 S         -4.7570709713        0.7538179417       -0.6707374651
 O         -5.3496300794        1.1075000554       -1.9422415633
 O         -4.8120577128        1.7598286210        0.3647411742
 C         -5.4955240966       -0.7586760979       -0.0891770782
 C         -6.1197408928       -0.7919181587        1.1423534016
 C         -6.6960885161       -1.9779445887        1.5700862142
 C         -6.6392526169       -3.1033476452        0.7624107046
 C         -6.0108187050       -3.0527826672       -0.4730830256
 C         -5.4335727075       -1.8700669819       -0.9067389033
 H         -4.9382879835       -1.7890645828       -1.8601219874
 H         -5.9681521064       -3.9300848159       -1.0984157976
 H         -7.0872837230       -4.0255459977        1.0972945190
 H         -7.1853824208       -2.0192816149        2.5299535746
 H         -6.1349299128        0.1066315875        1.7384899098
 H         -2.8839818081        0.6886317504       -1.9185377023
 H         -3.3874576414       -0.6054581655        1.4293114637
 H         -1.6452598102       -0.4722741925        3.1791250188
 H          0.5187898248        0.6080059187        2.6900836229
 H          1.7319400906        2.1440814625        1.3582365608
 C          1.3240397091        2.8430104624       -0.6189360827
 C          0.6948485438        4.1563704852       -0.2650152522
 C          2.1822072526        4.0540614624       -0.4160240913
 H          2.6456859639        4.5071236024       -1.2796410868
 H          2.7899724332        4.0927559215        0.4760534675
 H          0.1343357266        4.6823305261       -1.0229522925
 H          0.2907047397        4.2616571907        0.7305774457
 H          1.2114866367        2.4846300597       -1.6349160414
