  62
        -98.94796606
 C         -1.2524886611       -0.7727999564        0.3972131044
 C         -2.0920180412       -0.5902163692       -0.7274305124
 C         -3.0477962854        0.5203315782       -0.6324663374
 C         -3.0332750751        1.3276810565        0.4434882622
 C         -3.9247552393        2.5187865920        0.6692085806
 C         -5.3001604650        2.1691220473        1.2542605973
 C         -6.2665528603        1.4895589291        0.2832387047
 H         -7.2521898984        1.5009731651        0.7526949666
 H         -6.3343965552        2.0798399501       -0.6310787349
 C         -5.9011464994        0.0394783712       -0.0633123953
 H         -6.7942786954       -0.5860163382        0.0003871791
 H         -5.1890784421       -0.3420807495        0.6719334581
 C         -5.3145799634       -0.1491832304       -1.4623473721
 H         -5.0586215245       -1.2042544838       -1.5873681330
 H         -6.0658398698        0.1067292726       -2.2126879171
 C         -4.0516245557        0.6788635482       -1.7342580037
 H         -3.5910600991        0.3133866635       -2.6555494223
 H         -4.3100618322        1.7294739874       -1.8667170285
 H         -5.7554604670        3.1024753994        1.5934334376
 H         -5.1550382850        1.5326413438        2.1302058831
 H         -3.4019601205        3.1672348573        1.3760236782
 H         -4.0522339535        3.0626358623       -0.2674332227
 O         -2.1619908001        1.1595908021        1.4739668135
 C         -1.2593393431        0.1089763553        1.4774568909
 O         -0.5205746703        0.0688252400        2.4838223999
 H          0.8459481024        0.4070085430       -0.3312158648
 C          1.2614768864       -0.4157741626       -0.8922601461
 C          0.7873709146       -1.7018286859       -0.6747421748
 C          1.3142586537       -2.7383054902       -1.4350018317
 C          2.2812053566       -2.4801775263       -2.3916448962
 C          2.7640321604       -1.1992747367       -2.5907653760
 C          2.2469637392       -0.1567933708       -1.8302126576
 N          2.7085690837        1.1599209937       -1.9813597547
 S          2.8495541193        2.1302662441       -0.6250671013
 O          1.5537006696        2.6015253746       -0.2038100350
 O          3.7921916362        3.1555945785       -1.0212236280
 C          3.5935034111        1.0764141912        0.6079697868
 C          2.8644027125        0.6023204981        1.6788291342
 C          3.4785544750       -0.2607253731        2.5740718075
 C          4.8001314886       -0.6322867953        2.3869336413
 C          5.5226556296       -0.1388992403        1.3106589008
 C          4.9146749928        0.7200885120        0.4111239751
 H          5.4447008717        1.1343016139       -0.4311567408
 H          6.5528196114       -0.4234512339        1.1699099316
 H          5.2688750228       -1.3070534142        3.0856970344
 H          2.9080113689       -0.6375080589        3.4082393052
 H          1.8343413854        0.8969260594        1.8093113215
 H          3.4938523018        1.2685914641       -2.6061296492
 H          3.5245741441       -1.0034436542       -3.3307028556
 H          2.6738144508       -3.2920750227       -2.9845559205
 H          0.9628752363       -3.7457714167       -1.2843045920
 C         -0.2398031680       -1.9023076490        0.4143013647
 H          0.2857875356       -1.8217024269        1.3782041190
 C         -0.9362893205       -3.2457352109        0.3503981719
 C         -0.3381817236       -4.4400056138        1.0294957993
 C         -1.5642536284       -3.7918085210        1.5965067948
 H         -2.5091950790       -4.3076410693        1.5149734885
 H         -1.4647001829       -3.2055973975        2.4989256603
 H          0.5944821062       -4.3020985072        1.5552455527
 H         -0.4438619450       -5.4065734251        0.5604051349
 H         -1.4654810247       -3.3953714898       -0.5833075684
 O         -2.0481303818       -1.3120487771       -1.7576275387
