  62
        -98.94129899
 C         -1.8148304619       -0.9483221209        0.7240492842
 C         -2.0539555472        0.4443195096        0.8740028042
 C         -3.4367026140        0.8983599536        0.6844110065
 C         -4.3903719461       -0.0086301059        0.4064836550
 C         -5.8336072021        0.3119179835        0.1487861551
 C         -6.0941992444        0.5399492045       -1.3466411537
 C         -5.1069374158        1.5037986214       -2.0048950939
 H         -4.1121240803        1.0521114009       -2.0021212971
 H         -5.4068002168        1.6128356787       -3.0494672412
 C         -5.0363433249        2.8884625268       -1.3457735853
 H         -5.9207369064        3.0501220399       -0.7284007104
 H         -5.0448556077        3.6492116624       -2.1292087084
 C         -3.7804923572        3.1284251924       -0.5054764906
 H         -2.8936957930        2.8739800597       -1.0914403928
 H         -3.7257881437        4.1955582423       -0.2746029018
 C         -3.7123499990        2.3688612163        0.8254858413
 H         -2.8747253374        2.7764449298        1.3987365664
 H         -4.6308117489        2.5359012782        1.3919195664
 H         -7.1108669568        0.9189402490       -1.4661329647
 H         -6.0275126258       -0.4219332120       -1.8603198036
 H         -6.4387764701       -0.5297676397        0.4898723668
 H         -6.1097497471        1.1986377968        0.7161078258
 O         -4.1304369319       -1.3327591442        0.2821182032
 C         -2.8437294557       -1.8377608543        0.4135131330
 O         -2.7798472045       -3.0700543997        0.2321260592
 H          1.8934517131       -0.1691453038        0.1953676213
 C          1.5435677789       -0.8383617558       -0.5754291321
 C          0.3626451700       -1.5412101641       -0.3884359829
 C         -0.0848470633       -2.3828987632       -1.4009300858
 C          0.6410492808       -2.5119885393       -2.5708414562
 C          1.8324433787       -1.8287288226       -2.7433533127
 C          2.2894992149       -0.9877661490       -1.7360154380
 N          3.4879764145       -0.2753532110       -1.8764154950
 S          4.4971855389       -0.0688208849       -0.5563189380
 O          5.7987799132        0.1873925273       -1.1348539428
 O          4.4144859230       -1.1854530911        0.3554093706
 C          3.9112638060        1.4178349741        0.2266675374
 C          3.7616209945        2.5516284528       -0.5468145670
 C          3.3224944125        3.7189566145        0.0561891320
 C          3.0443597215        3.7336857160        1.4146300190
 C          3.2044323550        2.5882986451        2.1784935246
 C          3.6429830322        1.4175087674        1.5808765385
 H          3.7746959807        0.5023635051        2.1372651180
 H          2.9851469427        2.6006011767        3.2342137121
 H          2.6988730014        4.6423376255        1.8818933683
 H          3.1954059732        4.6126464432       -0.5333762140
 H          3.9894184101        2.5019430982       -1.5985329325
 H          4.0045264908       -0.4690017247       -2.7218228406
 H          2.4048886675       -1.9449725983       -3.6512474700
 H          0.2826283311       -3.1644192802       -3.3529891620
 H         -1.0025325627       -2.9332464124       -1.2604021831
 C         -0.3803572942       -1.4040962953        0.9192377024
 H          0.1018038956       -0.5929692357        1.4821805559
 C         -0.2372385434       -2.6867892338        1.7178590573
 C          1.1142010561       -3.0519377118        2.2533556580
 C          0.0294105243       -2.6132020499        3.1897550815
 H         -0.4258717297       -3.3511478545        3.8331668643
 H          0.1064088568       -1.6324502491        3.6360479261
 H          1.4013388382       -4.0925034094        2.2520774881
 H          1.9346956899       -2.3772012333        2.0555648132
 H         -0.8698224833       -3.4888955451        1.3610426268
 O         -1.1464735937        1.2696418390        1.1622736253
