  62
        -98.93932993
 C         -1.4920629524       -0.7207026595       -0.5053542241
 C         -2.7852935619       -1.2796722733       -0.6036706989
 C         -3.9171269204       -0.3391136523       -0.5244251376
 C         -3.6733295309        0.9744213813       -0.3571042250
 C         -4.6137812061        2.1596120991       -0.2832567017
 C         -6.1108286501        1.9587909413       -0.0625462618
 C         -6.4867063962        1.4028814571        1.3105086807
 H         -6.2792621418        2.1670198798        2.0639046681
 H         -7.5620508546        1.2116912397        1.3188211650
 C         -5.7531436755        0.1315852153        1.7304136285
 H         -4.6852688446        0.3387530798        1.8256654886
 H         -6.1155108736       -0.1512949510        2.7225700825
 C         -5.9451963907       -1.0694877582        0.8064224389
 H         -7.0111396756       -1.2628286551        0.6710203381
 H         -5.5088220353       -1.9402093465        1.3035772218
 C         -5.2871933616       -0.9512793060       -0.5795667781
 H         -5.1553567631       -1.9619885073       -0.9770105113
 H         -5.9232918896       -0.4087161532       -1.2749023008
 H         -6.5737773070        2.9450074207       -0.1560705637
 H         -6.5291181296        1.3399820012       -0.8509053602
 H         -4.2190260226        2.8021673215        0.5100383859
 H         -4.4741473943        2.7077497312       -1.2215300482
 O         -2.4027188034        1.4669496637       -0.2697193303
 C         -1.2866992495        0.6471341336       -0.3317064883
 O         -0.2017599058        1.2444809481       -0.2209795966
 H          2.4506527753       -1.2481989864       -0.3953292069
 C          1.9507662059       -1.2393498030        0.5575312261
 C          0.5831678396       -1.4447815586        0.6395037913
 C         -0.0109853909       -1.4763858533        1.8990518131
 C          0.7411446587       -1.2791859554        3.0400388253
 C          2.1008401511       -1.0348861465        2.9516080294
 C          2.7064645325       -1.0192141488        1.7016905730
 N          4.0828319664       -0.7939608825        1.5807899183
 S          4.7381917746       -0.1068108305        0.2100756871
 O          4.8015256244       -1.0825477583       -0.8498010257
 O          6.0142304324        0.4122555774        0.6563487753
 C          3.6725341109        1.2431544382       -0.2602999094
 C          3.3612525382        2.2025661886        0.6811413415
 C          2.5531337001        3.2642922896        0.3120580447
 C          2.0749805145        3.3509759744       -0.9851958651
 C          2.4011045367        2.3828954235       -1.9201326991
 C          3.2063884333        1.3169477862       -1.5560978885
 H          3.4770203496        0.5374197989       -2.2513177461
 H          2.0216421721        2.4491093374       -2.9278084526
 H          1.4373238506        4.1735466011       -1.2678138593
 H          2.2905187958        4.0170369030        1.0379874526
 H          3.7496422954        2.1120760672        1.6828380667
 H          4.5517789748       -0.4985013506        2.4234414892
 H          2.6876166165       -0.8637607368        3.8409786142
 H          0.2645618328       -1.3035291539        4.0085793691
 H         -1.0761577923       -1.6505465611        1.9694611518
 C         -0.2792313563       -1.6286127638       -0.5839020761
 H         -0.6742775339       -2.6553939716       -0.5840860837
 C          0.4645696721       -1.3888168968       -1.8810254962
 C          1.2791055861       -2.4831436767       -2.5013405526
 C         -0.0105465493       -2.0571067990       -3.1347005332
 H          0.0257748558       -1.5031029877       -4.0606532575
 H         -0.8626314979       -2.7161108009       -3.0534884565
 H          2.2085802471       -2.2254588421       -2.9873036095
 H          1.3045102420       -3.4356161522       -1.9935773604
 H          0.8288796830       -0.3702303985       -1.9634359173
 O         -2.9909330367       -2.5150067195       -0.7531880748
