  62
        -98.94540134
 C          1.6867418969       -0.8959369418       -0.1398670515
 C          2.7184381076       -0.5943975075       -1.0597549584
 C          3.4163022327        0.6815766067       -0.8500433142
 C          3.0232315057        1.4892275146        0.1519951793
 C          3.6784109308        2.7909795112        0.5102981515
 C          4.7842270660        2.5861315728        1.5553495800
 C          5.7626010575        1.4638971576        1.2084892878
 H          6.5142717250        1.4320130849        2.0001021734
 H          5.2326539620        0.5088969431        1.2300430070
 C          6.4585167784        1.6251446166       -0.1502608691
 H          6.3776982369        2.6590441350       -0.4881178025
 H          7.5214777825        1.4069357842       -0.0276238045
 C          5.9365808261        0.6926067837       -1.2449695280
 H          5.9300429341       -0.3365956487       -0.8770286449
 H          6.6321649457        0.7339295351       -2.0874422448
 C          4.5400108839        1.0187931799       -1.7890963876
 H          4.4961214505        2.0695495761       -2.0837959746
 H          4.3794420461        0.4057004545       -2.6811124809
 H          5.3297038160        3.5247922483        1.6683200471
 H          4.3158069821        2.3478323340        2.5129957856
 H          4.0929942963        3.2435303454       -0.3885731308
 H          2.9191314071        3.4573322001        0.9235191126
 O          2.0001729443        1.1852435927        0.9904154930
 C          1.3172095152       -0.0210577622        0.8824078980
 O          0.4197826106       -0.1777530420        1.7281820324
 O          3.0374186315       -1.3542313377       -2.0147713396
 C          0.9470167117       -2.2130067297       -0.2735109318
 C         -0.5389654980       -2.0041413590       -0.4373197037
 C         -1.4794248642       -2.8854567518        0.0829301200
 C         -2.8329556198       -2.6634521681       -0.1038096727
 C         -3.2812706732       -1.5551452988       -0.7980514364
 C         -2.3498098377       -0.6632878925       -1.3142314746
 C         -0.9941780777       -0.9011104437       -1.1473342646
 H         -0.2759839596       -0.2043910792       -1.5624261758
 N         -2.7929390880        0.4887750960       -1.9855110572
 S         -4.0600712094        1.3440580826       -1.3007135869
 O         -5.3109376466        0.7901472957       -1.7587148805
 O         -3.8219900850        2.7249646933       -1.6623189372
 C         -3.9241997712        1.1203932367        0.4651673917
 C         -5.0330295007        0.7157943904        1.1811684127
 C         -4.9161422675        0.5288550853        2.5489390921
 C         -3.6951695004        0.7359567786        3.1721934186
 C         -2.5906771269        1.1434430749        2.4401092431
 C         -2.7064967770        1.3454964710        1.0749246669
 H         -1.8547296319        1.6572041689        0.4910664943
 H         -1.6296164105        1.2781603649        2.9096948204
 H         -3.5991575116        0.5759831423        4.2344965350
 H         -5.7732490484        0.2134379631        3.1219067532
 H         -5.9573963648        0.5485025502        0.6523306554
 H         -2.0487304577        1.1098226140       -2.2670424581
 H         -4.3315291497       -1.3646357271       -0.9497462022
 H         -3.5497685745       -3.3596895873        0.3032390220
 H         -1.1510538031       -3.7487628933        0.6377689312
 H          1.3301198848       -2.6700758538       -1.1989677276
 C          1.2916219506       -3.1186241459        0.8928400467
 C          1.3992006102       -4.6015376745        0.7042112234
 C          2.6352476690       -3.7817964107        0.9161607816
 H          3.1564879082       -3.8619859601        1.8583417646
 H          3.2863228172       -3.6088070242        0.0713382764
 H          1.0729569349       -5.2481513146        1.5048886404
 H          1.2196290267       -4.9961029249       -0.2845297150
 H          0.9005039997       -2.7474132694        1.8335425680
