  62
        -98.94413875
 C          2.5246125903        1.1536061453       -0.0808388123
 C          3.2312374831        0.3921043880        0.8797408220
 C          4.0120469714       -0.7338490003        0.3555479586
 C          4.0297485355       -0.9743607116       -0.9685148782
 C          4.7968669746       -2.0697466842       -1.6584762683
 C          4.0712091430       -3.4220889028       -1.6792690236
 C          4.0148135298       -4.1501564334       -0.3356782129
 H          3.6733432029       -5.1676717312       -0.5356666562
 H          5.0198230683       -4.2200686811        0.0814006823
 C          3.0731690443       -3.5077577164        0.6927199549
 H          2.3913415991       -2.8224744718        0.1828566393
 H          2.4583381255       -4.2813518837        1.1588563580
 C          3.7831472011       -2.7541859957        1.8178337493
 H          4.3696736760       -3.4557063606        2.4151215205
 H          3.0231667441       -2.3137007368        2.4691527469
 C          4.7077163664       -1.6271761874        1.3379985598
 H          4.9845502939       -1.0196169832        2.2031017223
 H          5.6133809902       -2.0450997447        0.8993196222
 H          3.0563849027       -3.2680818951       -2.0533764806
 H          4.5949842776       -4.0621795681       -2.3927547691
 H          4.9439355075       -1.7427204246       -2.6899328601
 H          5.7732741175       -2.1862896160       -1.1876724822
 O          3.3416373605       -0.2140161209       -1.8605222278
 C          2.5513793848        0.8476484319       -1.4418251714
 O          1.9421239697        1.4260224350       -2.3601603175
 H          0.3250733718        0.0688712662        0.8206059482
 C         -0.3152247404        0.8181220013        0.3697949001
 C          0.2186114041        2.0640644684        0.0620968688
 C         -0.6189555236        3.0201638623       -0.4963756055
 C         -1.9458286320        2.7229296691       -0.7572460633
 C         -2.4662317836        1.4755658038       -0.4673881324
 C         -1.6417537541        0.5155315289        0.1055166644
 N         -2.1579163544       -0.7597896577        0.3967299918
 S         -3.5772547079       -0.8538180545        1.2903819349
 O         -3.7180149590        0.2762500890        2.1793130648
 O         -3.5449462823       -2.1598333590        1.9118808821
 C         -4.8631368065       -0.8278520752        0.0597115863
 C         -4.8155527366       -1.7666830333       -0.9521076519
 C         -5.8140271955       -1.7653571484       -1.9129071391
 C         -6.8390662083       -0.8334376092       -1.8438292109
 C         -6.8746616040        0.0998343779       -0.8191581889
 C         -5.8778937576        0.1051919794        0.1442960758
 H         -5.8600319412        0.8156945653        0.9552356223
 H         -7.6724480278        0.8231194338       -0.7671049139
 H         -7.6145614436       -0.8349161614       -2.5934199608
 H         -5.7892485574       -2.4892984023       -2.7114420162
 H         -4.0039371687       -2.4749170404       -0.9682775648
 H         -1.4694649121       -1.4009415222        0.7635138747
 H         -3.4966887691        1.2393176767       -0.6764324943
 H         -2.5832000204        3.4741615859       -1.1978951336
 H         -0.2323665741        3.9978181843       -0.7321323598
 C          1.6710706207        2.3176981052        0.3866868293
 H          1.7730345521        2.3319662863        1.4828253884
 C          2.2005761285        3.6235533944       -0.1669379095
 C          2.0112449057        4.9000130553        0.5952152204
 C          3.3693402575        4.2730374185        0.5094013636
 H          4.1214633571        4.7473057545       -0.1028963789
 H          3.7663209858        3.7865657394        1.3886600735
 H          1.8330608455        5.8095701422        0.0417284162
 H          1.4876674469        4.8468225793        1.5379002863
 H          2.1653592831        3.6604865531       -1.2497875033
 O          3.2058495840        0.6380580933        2.1168204112
