  62
        -98.93501105
 C          2.0393865894        1.1966270191        0.3012763308
 C          2.7323370593        0.4288594386        1.2723253805
 C          4.0596988394       -0.0610119210        0.8904936404
 C          4.5458046696        0.2208868199       -0.3317247493
 C          5.8909210998       -0.1894410896       -0.8667021293
 C          5.9251116101       -1.6095107793       -1.4480470802
 C          5.8650442000       -2.7371696599       -0.4168285809
 H          6.1170374002       -3.6623767596       -0.9389568614
 H          6.6295614899       -2.5742878303        0.3435118594
 C          4.4956851899       -2.9084674905        0.2556974287
 H          3.7326963600       -2.3945417502       -0.3340816411
 H          4.2268288601       -3.9672423206        0.2706053880
 C          4.4304050796       -2.4039677014        1.6973631890
 H          3.4087633795       -2.5395769518        2.0616529588
 H          5.0934620595       -3.0029556318        2.3256178088
 C          4.8012910693       -0.9247766815        1.8656557600
 H          5.8767066494       -0.7915127213        1.7503066503
 H          4.5151598191       -0.6122376122        2.8729396502
 H          5.0988673802       -1.7180103189       -2.1545631604
 H          6.8571133502       -1.7092909788       -2.0091429701
 H          6.1355234899        0.5146223409       -1.6649133088
 H          6.6412887896       -0.0985299600       -0.0807907991
 O          3.8496103697        0.9499049203       -1.2400813590
 C          2.5777611296        1.4422039000       -0.9635622689
 O          2.0697269797        2.0613285705       -1.9129780286
 O          2.2611273791        0.1670269378        2.4128121502
 C          0.6538414192        1.7026559587        0.6850875909
 C         -0.3753063305        1.0909914892       -0.2318778597
 C         -0.8198027103        1.6317745899       -1.4326528494
 C         -1.7380634501        0.9516413802       -2.2154874400
 C         -2.2344048800       -0.2793377801       -1.8304274109
 C         -1.7932454202       -0.8366153808       -0.6372735712
 C         -0.8817796904       -0.1491663711        0.1489807194
 H         -0.5376137605       -0.5948973917        1.0738037892
 N         -2.2972128001       -2.0855102711       -0.2277465921
 S         -3.9645134401       -2.2580545913       -0.2301188125
 O         -4.2452025801       -3.2747957220        0.7587543568
 O         -4.4190677198       -2.5375698105       -1.5690322428
 C         -4.5764540804       -0.6694021817        0.3026751484
 C         -5.2611815503        0.1404183488       -0.5799038412
 C         -5.6659543306        1.3972527484       -0.1590413705
 C         -5.3755080909        1.8216753177        1.1280400498
 C         -4.6898632809        0.9944814972        2.0046976594
 C         -4.2836982907       -0.2629628525        1.5896844587
 H         -3.7536425207       -0.9336458228        2.2470867384
 H         -4.4650975712        1.3265275966        3.0055467797
 H         -5.6844411611        2.8030319174        1.4516246704
 H         -6.2005928705        2.0422137688       -0.8375376702
 H         -5.4644580201       -0.2275256206       -1.5721727215
 H         -1.9042677102       -2.4142036716        0.6423135678
 H         -2.9429343398       -0.8217796298       -2.4351405214
 H         -2.0657373300        1.3889060508       -3.1463836398
 H         -0.4259651204        2.5672428301       -1.7859456688
 H          0.4866883391        1.2501956281        1.6752582006
 C          0.6359616690        3.2042707185        0.9402830218
 C          0.7550305391        4.2818985692       -0.0936423475
 C         -0.5380984311        4.0862911386        0.6387482022
 H         -0.8226190813        4.8238439781        1.3742489126
 H         -1.3687603509        3.6531779688        0.1043679717
 H          1.3592165689        5.1422101491        0.1590311632
 H          0.8400350293        3.9975389299       -1.1287931976
 H          1.1574235888        3.4147949380        1.8712559221
