  62
        -98.93724776
 C         -1.7520463411       -0.3768234102       -0.4338724503
 C         -3.0075538211       -0.8762248397       -0.8507098707
 C         -4.1245102610       -0.7127764406        0.0943320997
 C         -3.9017706408       -0.1226297519        1.2813526303
 C         -4.8740709606        0.1055338169        2.4116061806
 C         -6.2797683507        0.6038254874        2.0482321414
 C         -6.3472409908        1.5188312287        0.8167760024
 H         -6.9040665207        2.4212729384        1.0758589834
 H         -5.3424985808        1.8286689590        0.5245697926
 C         -7.0462357810        0.8629284800       -0.3765667582
 H         -7.9321180210        0.3351241696       -0.0165063087
 H         -7.3876782711        1.6461480907       -1.0577281673
 C         -6.1863124611       -0.1020717492       -1.1919277394
 H         -6.8304424213       -0.5839225183       -1.9314990498
 H         -5.4263462912        0.4563373014       -1.7452021189
 C         -5.4652441111       -1.1922472901       -0.3824049007
 H         -5.2646810512       -2.0316944193       -1.0539896216
 H         -6.0828926010       -1.5464259609        0.4394998390
 H         -6.9397766507       -0.2485752325        1.8927880805
 H         -6.6595695505        1.1387230764        2.9204211920
 H         -4.3850073605        0.8332590162        3.0636219114
 H         -4.9605270906       -0.8261586937        2.9785504596
 O         -2.6730289907        0.3422692876        1.6437874206
 C         -1.5737981909        0.2367013785        0.8053188203
 O         -0.5250007008        0.7153564479        1.2725781107
 O         -3.1857197013       -1.4474587485       -1.9605131113
 C         -0.5663318212       -0.5048390292       -1.3693757106
 C          0.5695764189       -1.2675506199       -0.7323355016
 C          0.3078893889       -2.2989206409        0.1645280073
 C          1.3375950890       -2.9921734316        0.7726422264
 C          2.6567684590       -2.6854403713        0.4879686866
 C          2.9300755389       -1.6801835804       -0.4272438224
 C          1.8939031188       -0.9790333597       -1.0315400215
 H          2.1280931888       -0.1949261289       -1.7354418107
 N          4.2803640589       -1.3692699701       -0.7140880422
 S          5.0821325291       -0.4980971914        0.4743321586
 O          6.4314457390       -0.3146659110       -0.0098145714
 O          4.9360577492       -1.1877583228        1.7293171279
 C          4.2324163991        1.0694044986        0.5036513704
 C          4.7765767691        2.1422114193       -0.1760985185
 C          4.0622952391        3.3274515294       -0.2375250971
 C          2.8129021092        3.4125804688        0.3598796731
 C          2.2782883993        2.3257085181        1.0343694720
 C          2.9949714592        1.1416579280        1.1109163107
 H          2.5953197393        0.2849435774        1.6289446398
 H          1.2969782693        2.3663306376        1.4802177222
 H          2.2494158092        4.3307216089        0.2985967742
 H          4.4746633791        4.1772509499       -0.7576777463
 H          5.7460707990        2.0276935797       -0.6338655388
 H          4.3982733388       -0.8918222592       -1.5978918917
 H          3.4729380390       -3.1977823919        0.9701175959
 H          1.1111378791       -3.7787202923        1.4768289256
 H         -0.7198869810       -2.5455854511        0.3936403872
 H         -0.9343331813       -1.0910084283       -2.2256308212
 C         -0.1447526612        0.8665825113       -1.8620950092
 C          0.3652904786        1.0572383428       -3.2588426191
 C         -0.9950742413        1.5599635424       -2.8823945483
 H         -1.1483196513        2.6246181723       -2.7909456272
 H         -1.8578268414        1.0247751129       -3.2519611088
 H          1.1478485686        1.7820627629       -3.4273939584
 H          0.4207252785        0.1881071935       -3.8972213100
 H          0.2865749989        1.4734002504       -1.0733891186
