  62
        -98.94144564
 C         -2.5645082338       -0.1312730794        0.1229864633
 C         -2.5468436506        1.0037530824        0.9710327061
 C         -2.2031165415        2.2815736969        0.3409028556
 C         -1.9111583495        2.3176517955       -0.9715531080
 C         -1.5245150235        3.5386445843       -1.7604793110
 C         -0.0327753860        3.8836131186       -1.6521746841
 C          0.3925237938        4.5076630148       -0.3223231166
 H          1.3904794268        4.9253402905       -0.4692094122
 H         -0.2758071028        5.3337493058       -0.0754208561
 C          0.4461323803        3.5169927752        0.8492513159
 H          0.4897421208        2.4948032696        0.4636720178
 H          1.3679002516        3.6717384946        1.4163981444
 C         -0.7128541515        3.6339127594        1.8400672485
 H         -0.6586319209        4.5969604681        2.3539745282
 H         -0.5971545338        2.8448841601        2.5883455431
 C         -2.1069796170        3.4955336417        1.2151353333
 H         -2.3546065683        4.3922956819        0.6471868690
 H         -2.8326178814        3.3800092400        2.0245308192
 H          0.2001166859        4.5885612687       -2.4538083402
 H          0.5473243198        2.9729539096       -1.8220649629
 H         -1.7545233595        3.3198433468       -2.8054011975
 H         -2.1243382372        4.3916603726       -1.4414530308
 O         -1.9479027719        1.2108246084       -1.7566545528
 C         -2.2214642641       -0.0425993926       -1.2278909852
 O         -2.1428867047       -0.9654481419       -2.0608336014
 O         -2.7998515698        0.9477150640        2.2063667365
 C         -2.7844054343       -1.4880547240        0.7687361388
 C         -1.6537151232       -2.4118653963        0.3841715068
 C         -1.8176352995       -3.7337384584       -0.0039015163
 C         -0.7149143914       -4.5054266247       -0.3340215834
 C          0.5609117411       -3.9762348213       -0.3080395090
 C          0.7340825658       -2.6463853129        0.0671233009
 C         -0.3641476266       -1.8953004385        0.4419363293
 H         -0.2179834239       -0.8727048890        0.7605513239
 N          2.0067324269       -2.0524245715        0.0246511376
 S          2.2398707039       -0.4410854041        0.4200887838
 O          2.0012184590       -0.2107861654        1.8302714560
 O          1.4957062817        0.3769242527       -0.5034551463
 C          3.9855628400       -0.3089185366        0.0855567396
 C          4.8878524079       -0.4910223975        1.1165466161
 C          6.2446318100       -0.4227987301        0.8415209982
 C          6.6741908042       -0.1754214975       -0.4536010347
 C          5.7571183388        0.0083622514       -1.4778421614
 C          4.3992167398       -0.0594875932       -1.2089404275
 H          3.6485819321        0.0826191368       -1.9693959477
 H          6.0941453228        0.2039894130       -2.4830155437
 H          7.7302500128       -0.1222333427       -0.6659001231
 H          6.9595833116       -0.5616147845        1.6363813339
 H          4.5068527506       -0.6689859678        2.1093130087
 H          2.7727871886       -2.6560585942        0.2815291016
 H          1.4146872550       -4.5732508583       -0.5877150453
 H         -0.8558451051       -5.5340421547       -0.6298733727
 H         -2.8061553983       -4.1586334433       -0.0640932969
 H         -2.6913997944       -1.2853318265        1.8506803837
 C         -4.1669041359       -2.0886703537        0.5634750197
 C         -5.3286974853       -1.2375632391        0.1481884220
 C         -4.7722127495       -2.2578604844       -0.7966621252
 H         -5.3556496224       -3.1462153022       -0.9900038915
 H         -4.1945857264       -1.9163836006       -1.6407301738
 H         -6.2892370096       -1.4234102782        0.6051941616
 H         -5.1352582937       -0.1941633707       -0.0564468451
 H         -4.3842026155       -2.8648168974        1.2911028636
