  62
        -98.94541811
 C         -2.5918967558       -0.0552984914       -0.5106267054
 C         -2.4923582343       -0.7803249289        0.7013673366
 C         -2.0593231390       -2.1762014205        0.5752606133
 C         -1.7607257567       -2.6769241193       -0.6369155907
 C         -1.2639236366       -4.0680781180       -0.9215885697
 C          0.2471439101       -4.2320424197       -0.7036573381
 C          0.6924555600       -4.2980011512        0.7582959197
 H          0.0769598506       -5.0211930288        1.2950142396
 H          1.7173120522       -4.6745288793        0.7608953226
 C          0.6656894413       -2.9478421665        1.4882839455
 H          1.5823613886       -2.8362385710        2.0731181990
 H          0.6566682645       -2.1378158961        0.7549539451
 C         -0.5030288251       -2.7669741677        2.4572837618
 H         -0.4612985054       -1.7497154012        2.8551872490
 H         -0.3960340830       -3.4631301368        3.2930368809
 C         -1.8886980592       -2.9723420377        1.8341575598
 H         -2.0607093383       -4.0305866222        1.6383246955
 H         -2.6373124427       -2.6207694022        2.5489380144
 H          0.5487603476       -5.1590515265       -1.1974725600
 H          0.7616662170       -3.4041242727       -1.1987187727
 H         -1.8050574970       -4.7882079680       -0.3068137852
 H         -1.4862314295       -4.2692091086       -1.9718020311
 O         -1.8912397544       -1.9539392318       -1.7819537693
 C         -2.2758963722       -0.6243391137       -1.7430674766
 O         -2.3109849064       -0.0650339396       -2.8609559376
 H         -0.3020811068        0.9186866110       -0.6074255290
 C         -0.4988808779        1.7005912639        0.1110757196
 C         -1.8063676405        2.1244020120        0.3132015848
 C         -2.0369313019        3.1510636226        1.2184937122
 C         -0.9801014281        3.7164402978        1.9130751046
 C          0.3151528928        3.2695529215        1.7303259210
 C          0.5561496714        2.2400948248        0.8248455034
 N          1.8484468321        1.7131287159        0.6640814727
 S          2.2629478080        0.8282963782       -0.7059678916
 O          2.0876182938        1.6358086380       -1.8948737066
 O          1.5838841808       -0.4418615429       -0.6842117218
 C          3.9977992497        0.5814837924       -0.3816194496
 C          4.3683856828       -0.4537569325        0.4554930297
 C          5.7120711889       -0.6367109352        0.7405419406
 C          6.6573937820        0.2144584391        0.1873614013
 C          6.2707335937        1.2473478512       -0.6533106040
 C          4.9280562471        1.4363107971       -0.9415912919
 H          4.5811987824        2.2186285944       -1.5974519681
 H          7.0082328202        1.9046732296       -1.0847952134
 H          7.7026079009        0.0695956369        0.4104242056
 H          6.0162784287       -1.4407198907        1.3910309984
 H          3.5971266992       -1.0933991320        0.8527064438
 H          2.5831826600        2.3495742175        0.9391891369
 H          1.1320575589        3.7005008138        2.2882915796
 H         -1.1709053679        4.5142987682        2.6147726189
 H         -3.0417231025        3.5034506365        1.3854370011
 C         -2.8964525623        1.4315114263       -0.4729157274
 H         -2.8408949198        1.7821399672       -1.5150346671
 C         -4.2882447721        1.6941651334        0.0615286335
 C         -5.0594425104        2.8946694197       -0.3961740660
 C         -5.4589298185        1.5265116117       -0.8582183552
 H         -6.3649879426        1.0906028200       -0.4653292162
 H         -5.2478236680        1.2478062373       -1.8808008551
 H         -4.5860708756        3.5504771171       -1.1115065958
 H         -5.6971231093        3.3995759079        0.3136679798
 H         -4.4058316956        1.3666052114        1.0877260115
 O         -2.7459765599       -0.2887947415        1.8323849774
