  62
        -98.94095529
 C          1.7401950632       -0.9456857974       -0.3281366306
 C          2.1565845997        0.4058918203       -0.4146811524
 C          3.6053180134        0.6189856217       -0.5761839988
 C          4.4262500703       -0.4403313372       -0.6837812231
 C          5.9209477639       -0.3640341751       -0.7932512896
 C          6.5819029706       -0.4151825577        0.5913279852
 C          5.9749282123        0.5579006409        1.6021675402
 H          4.9475507415        0.2553229241        1.8177454686
 H          6.5402318207        0.4567212485        2.5311559867
 C          5.9852744078        2.0263910993        1.1550775341
 H          6.3202577192        2.6444473178        1.9907759518
 H          6.7019545063        2.1621762706        0.3443040098
 C          4.6215882865        2.5673150133        0.7207255790
 H          4.6982482636        3.6547208932        0.6361274073
 H          3.8790351790        2.3530495231        1.4939767620
 C          4.0898527075        2.0409072121       -0.6184629007
 H          4.8510944111        2.1668672082       -1.3911046318
 H          3.2193572867        2.6451435588       -0.8913536685
 H          7.6461339847       -0.2031638912        0.4738512862
 H          6.4788938537       -1.4281534285        0.9873122296
 H          6.2663508033       -1.2150395500       -1.3826771953
 H          6.1962270192        0.5559198413       -1.3052564378
 O          3.9817415242       -1.7226272882       -0.6611906703
 C          2.6385255853       -2.0062189242       -0.4786971785
 O          2.3696054991       -3.2237109298       -0.4806005579
 O          1.3775044161        1.3920938346       -0.3620831681
 C          0.2834365695       -1.3274635837       -0.1266286547
 C         -0.6091627813       -0.5019034646       -1.0189551028
 C         -0.4943563356       -0.6503376507       -2.3991430352
 C         -1.2899476125        0.0827921654       -3.2572369113
 C         -2.2350564520        0.9622808417       -2.7578056058
 C         -2.3560308179        1.1186938731       -1.3828889532
 C         -1.5457672397        0.3898056996       -0.5223878419
 H         -1.6268752591        0.5680741321        0.5360316833
 N         -3.3021684302        2.0011827827       -0.8448813062
 S         -4.0620884325        1.6462682733        0.5954959209
 O         -5.3143489593        2.3701067079        0.5281569702
 O         -3.2167742910        1.9669235210        1.7174969446
 C         -4.3733029190       -0.1112814443        0.5505045892
 C         -5.0564252707       -0.6339656988       -0.5297745164
 C         -5.2927749832       -1.9980632973       -0.5774472303
 C         -4.8473005386       -2.8131682155        0.4519239288
 C         -4.1717823301       -2.2725360334        1.5347174715
 C         -3.9305673036       -0.9086974536        1.5857246605
 H         -3.4040676360       -0.4472125075        2.4061373676
 H         -3.8283522249       -2.9074654233        2.3361572715
 H         -5.0282211303       -3.8756665817        0.4115309027
 H         -5.8206621878       -2.4217800894       -1.4164665466
 H         -5.3973065953        0.0254072768       -1.3110941672
 H         -3.9211489830        2.4349461361       -1.5127797976
 H         -2.8605584958        1.5346720610       -3.4257060760
 H         -1.1813477888       -0.0357777402       -4.3248185415
 H          0.2412860655       -1.3411318207       -2.7889222521
 H          0.2172763494       -2.3745114931       -0.4658190576
 C         -0.1652822974       -1.3149325534        1.3270019871
 C          0.7916224068       -1.6171262964        2.4400263318
 C          0.2392895098       -0.2337408510        2.2814261313
 H         -0.4892830946        0.1218219307        2.9962767267
 H          0.8882854176        0.5437267324        1.9100003294
 H          0.4451522424       -2.2202704827        3.2656039752
 H          1.8260565004       -1.7884639582        2.1789503819
 H         -1.1711543037       -1.7089546108        1.4374230680
