  62
        -98.94526018
 C          2.1510694373        0.8585598299        0.0723398007
 C          2.8747871920        0.2175726579        1.1053110543
 C          3.6355288502       -0.9761000269        0.7129001412
 C          3.5675174552       -1.4096418458       -0.5593080204
 C          4.3326782684       -2.5786639051       -1.1073113811
 C          5.6861643218       -2.1360316760       -1.6811703571
 C          6.4937762149       -1.2418073664       -0.7402947403
 H          7.4397700542       -1.0178507864       -1.2378424233
 H          5.9666309766       -0.2939039736       -0.6102722929
 C          6.7740016063       -1.8585280932        0.6372340375
 H          7.8212757442       -1.6839797144        0.8924468384
 H          6.6261757862       -2.9382997711        0.5967347261
 C          5.9354725300       -1.2748777590        1.7757981785
 H          6.3603603608       -1.6193362519        2.7223110999
 H          6.0077538003       -0.1844964947        1.7619796436
 C          4.4503672190       -1.6588980284        1.7754319247
 H          4.3501654877       -2.7437981590        1.7012666402
 H          4.0242352332       -1.3390586894        2.7310252692
 H          5.5051481128       -1.5846642501       -2.6067377019
 H          6.2652203085       -3.0285553267       -1.9250370740
 H          4.4833635792       -3.3112753449       -0.3166292872
 H          3.7406859729       -3.0338428816       -1.9033287007
 O          2.8205086499       -0.7965444722       -1.5131840819
 C          2.1028342333        0.3569570492       -1.2285681925
 O          1.4765045217        0.8249690738       -2.1975553638
 H         -0.1014998796        0.0464875464        1.1639520338
 C         -0.7007594632        0.7529432958        0.6017760518
 C         -0.0997867533        1.9062330966        0.1117737025
 C         -0.8790841451        2.8022677745       -0.6074212891
 C         -2.2180945207        2.5371871338       -0.8382303721
 C         -2.8101052734        1.3863863366       -0.3522527935
 C         -2.0409698403        0.4845443721        0.3719562994
 N         -2.6345260602       -0.6802981035        0.8889034155
 S         -3.5819242631       -1.6189254947       -0.1311945102
 O         -3.5433205431       -2.9476608896        0.4411462347
 O         -3.1666099271       -1.5005778680       -1.5095963658
 C         -5.2173404197       -0.9460321476        0.0794358477
 C         -5.7290822975       -0.8690577590        1.3600796982
 C         -7.0012350747       -0.3509141555        1.5420735328
 C         -7.7373221402        0.0758264021        0.4466565550
 C         -7.2112011638       -0.0122946915       -0.8330347515
 C         -5.9384957801       -0.5286566983       -1.0219577156
 H         -5.4855957313       -0.6109132657       -1.9973730389
 H         -7.7849139048        0.3190844439       -1.6835939992
 H         -8.7269571966        0.4795476301        0.5911595222
 H         -7.4136040042       -0.2808794428        2.5357258949
 H         -5.1257561307       -1.2143869154        2.1828834170
 H         -1.9961461104       -1.2604104990        1.4140187576
 H         -3.8506747565        1.1748225099       -0.5356576751
 H         -2.8099038895        3.2385597846       -1.4062844743
 H         -0.4366576791        3.7037879659       -0.9976574616
 C          1.3671355920        2.1176543090        0.3955253035
 H          1.4860481390        2.2646351465        1.4796449689
 C          1.9623062083        3.3090731443       -0.3248519174
 C          1.8420041835        4.6831563670        0.2612593368
 C          3.1656374441        3.9811512010        0.2631485289
 H          3.9389374456        4.3307293391       -0.4043811047
 H          3.5403984511        3.5946406176        1.1998366002
 H          1.3199134064        4.7810604419        1.2008688795
 H          1.7084650716        5.5193807062       -0.4081830854
 H          1.9250081570        3.2035468449       -1.4034210566
 O          2.8793931536        0.6213844466        2.3001359173
