  62
        -98.94427552
 C         -1.8406997374       -0.7859024245        0.3081761245
 C         -2.3233103944        0.5313506165        0.1196261146
 C         -3.7596927597        0.7261714195        0.3678662683
 C         -4.5086993642       -0.3175658696        0.7680517315
 C         -5.9905878809       -0.2708888553        1.0007446727
 C         -6.7646878610       -0.6327076541       -0.2746213650
 C         -6.2986610176        0.1266361670       -1.5168425772
 H         -5.2783792618       -0.1787389771       -1.7601942122
 H         -6.9345217388       -0.1872229221       -2.3475034790
 C         -6.3503393716        1.6550078196       -1.3830891950
 H         -7.0015183760        1.9328849942       -0.5535376872
 H         -6.7883605532        2.0716663099       -2.2925885028
 C         -4.9857402372        2.3222660932       -1.2005722781
 H         -4.3007862892        1.9757415338       -1.9787687372
 H         -5.1132191824        3.3998592889       -1.3347796237
 C         -4.3144674364        2.1074651522        0.1618970241
 H         -3.4570944614        2.7847566092        0.2204282247
 H         -5.0122527302        2.3670481064        0.9606868639
 H         -7.8244620734       -0.4362393295       -0.1024310687
 H         -6.6430399506       -1.7020313012       -0.4619366596
 H         -6.2390722449       -0.9910424697        1.7820842659
 H         -6.2690259007        0.7259543012        1.3369252825
 O         -4.0022192764       -1.5617344716        0.9639256819
 C         -2.6633080963       -1.8299352473        0.7308954637
 O         -2.3302124363       -3.0137010077        0.9408207603
 H          1.7474163434        0.5282370865       -0.6928840858
 C          1.5387055137        0.5391877985        0.3635828553
 C          0.5008663083       -0.2133271566        0.8894483671
 C          0.2603662425       -0.1540474411        2.2607397746
 C          1.0215728837        0.6569280044        3.0782321180
 C          2.0489262440        1.4182572860        2.5482830561
 C          2.3031399885        1.3602203445        1.1838961107
 N          3.3320016687        2.1278429163        0.6240274862
 S          4.2087741920        1.5838678371       -0.6820935404
 O          5.4470104524        2.3313755659       -0.6161139024
 O          3.4566660790        1.7289344483       -1.9028718551
 C          4.5311829916       -0.1439488801       -0.3695081100
 C          4.3469781036       -1.0555824266       -1.3880793230
 C          4.6144217457       -2.3944945846       -1.1509110941
 C          5.0590375087       -2.7971622637        0.0983953544
 C          5.2450226783       -1.8685629285        1.1111853739
 C          4.9824762965       -0.5285337505        0.8777461220
 H          5.1252804556        0.2127984615        1.6466598283
 H          5.5927126991       -2.1848942509        2.0814102784
 H          5.2627862193       -3.8400722623        0.2833937585
 H          4.4720462514       -3.1159687400       -1.9396337545
 H          3.9940651558       -0.6994606528       -2.3422459172
 H          3.8949799298        2.6475623341        1.2798757803
 H          2.6392852255        2.0618295730        3.1825178493
 H          0.8162450942        0.6979095609        4.1373197364
 H         -0.5452800100       -0.7466132351        2.6730058107
 C         -0.3784121735       -1.1012400507        0.0445279362
 H         -0.2285739231       -2.1407746441        0.3709101184
 C         -0.0954489205       -1.0133123095       -1.4402056363
 C          0.9764880823       -1.8581605478       -2.0569326618
 C         -0.4659434985       -2.1743698916       -2.3118369579
 H         -0.8746646502       -1.9756141578       -3.2913275849
 H         -0.8961974183       -3.0383756765       -1.8262003712
 H          1.5336345570       -2.5133087737       -1.4046591428
 H          1.5567466390       -1.4375078804       -2.8641318921
 H         -0.2551245503       -0.0177332009       -1.8395586063
 O         -1.5967442977        1.4955486487       -0.2369766459
