  62
        -98.94353855
 C         -1.0008052240       -1.2004495360       -0.6471231693
 C         -1.9784387834       -1.4675648912        0.3440168362
 C         -2.8451764955       -0.3483434380        0.7317537042
 C         -2.6372156405        0.8601491311        0.1795168691
 C         -3.4601863860        2.0846516154        0.4565798074
 C         -4.6289632483        2.2065351775       -0.5311588469
 C         -5.4460584107        0.9233027383       -0.6797255571
 H         -6.2608496337        1.1346142649       -1.3754706275
 H         -4.8206878422        0.1543903988       -1.1388092896
 C         -6.0241886794        0.3837313198        0.6358501328
 H         -7.0658840256        0.1003936305        0.4712394685
 H         -6.0177507177        1.1683008153        1.3933782361
 C         -5.3078263475       -0.8523887586        1.1831645513
 H         -5.9215418960       -1.2750807365        1.9831425871
 H         -5.2286921087       -1.6080042096        0.3975738379
 C         -3.9071609252       -0.6127274400        1.7615290892
 H         -3.9428975515        0.1978170618        2.4931549812
 H         -3.5989146393       -1.5256012039        2.2801004124
 H         -4.2268560400        2.4717248253       -1.5114538013
 H         -5.2788845801        3.0178983784       -0.1984683914
 H         -3.8342447389        2.0388457559        1.4777615274
 H         -2.8175315814        2.9613709091        0.3576148657
 O         -1.6726475371        1.0914479829       -0.7426179898
 C         -0.8278151791        0.0765492898       -1.1837846777
 O         -0.0043912195        0.4550729799       -2.0344980191
 H          1.4215550075       -0.2783822543       -0.1669451372
 C          1.7479455988       -1.2134211157        0.2594260088
 C          1.0972548683       -2.3899704568       -0.0823634726
 C          1.5442972975       -3.5837117847        0.4718742347
 C          2.6129987148       -3.5926858833        1.3512122654
 C          3.2361260391       -2.4124665898        1.7157450607
 C          2.7917241481       -1.2132806685        1.1710691200
 N          3.3800545025        0.0128567186        1.5150896037
 S          2.3911859237        1.3561254043        1.6932079590
 O          3.1476677151        2.2408447401        2.5578612233
 O          1.0765869902        0.9911623883        2.1717786419
 C          2.2947820274        2.0965140902        0.0796689210
 C          3.3680535067        2.0010118948       -0.7826922083
 C          3.2874575936        2.6240171702       -2.0171612437
 C          2.1474050090        3.3325968280       -2.3625421267
 C          1.0820642665        3.4242892592       -1.4821207024
 C          1.1551715545        2.8017889115       -0.2473825869
 H          0.3397531017        2.8284056994        0.4591874264
 H          0.1892487382        3.9634985634       -1.7553365035
 H          2.0835430145        3.8099786121       -3.3276674849
 H          4.1110810369        2.5493736701       -2.7091050455
 H          4.2351495828        1.4347639081       -0.4851762017
 H          4.0809031946       -0.0339279138        2.2407722578
 H          4.0521585251       -2.4153444667        2.4221233151
 H          2.9520814288       -4.5260753607        1.7741732870
 H          1.0361241328       -4.5047049748        0.2265516658
 C         -0.0832768174       -2.3517073678       -1.0205501700
 H         -0.6755169751       -3.2629782024       -0.8375009870
 C          0.3284553288       -2.3595136566       -2.4852580439
 C          1.6912352274       -1.9589200539       -2.9552447248
 C          1.2822845246       -3.3988716334       -2.9962414587
 H          1.0824623190       -3.8545701238       -3.9541463171
 H          1.7287817723       -4.0645561508       -2.2734018476
 H          1.7576825389       -1.4049969112       -3.8785265544
 H          2.4115424797       -1.6512551622       -2.2136287875
 H         -0.4993558683       -2.0963647348       -3.1356840465
 O         -2.1233840304       -2.6029413907        0.8756717251
