  62
        -98.94702800
 C          2.2829916831        0.5239592161       -0.4762577919
 C          1.4502498058       -0.4033996828       -1.1467926924
 C          1.7314418036       -1.8251195817       -0.8981653787
 C          2.7170816784       -2.1702543500       -0.0521070698
 C          3.0757037029       -3.5770530185        0.3280262989
 C          2.3153347492       -4.0333142664        1.5804365707
 C          0.8080604533       -3.7821297560        1.5216725020
 H          0.6135776363       -2.7064441865        1.5371431581
 H          0.3750267098       -4.1924486047        2.4372233867
 C          0.1056925361       -4.3989441953        0.3041322526
 H         -0.8175566424       -4.8755909724        0.6406103248
 H          0.7329942110       -5.1761126094       -0.1353644820
 C         -0.2841397200       -3.3818567507       -0.7698887780
 H         -0.7964054762       -2.5431503094       -0.2916742743
 H         -0.9922906424       -3.8584187128       -1.4535148225
 C          0.8739947517       -2.8317899423       -1.6129100716
 H          0.4435228448       -2.3065464727       -2.4703817679
 H          1.4821615857       -3.6581920474       -1.9872880436
 H          2.7164824034       -3.4980090742        2.4443584709
 H          2.5009553214       -5.0996177510        1.7253442082
 H          4.1472862047       -3.6132314061        0.5331106199
 H          2.8528107674       -4.2403211767       -0.5056015313
 O          3.4912124185       -1.2556999132        0.5863711532
 C          3.2855901346        0.0994010389        0.4010701789
 O          4.0627423254        0.8255943601        1.0552507905
 O          0.5146769684       -0.0882155828       -1.9303027294
 C          2.1292870811        2.0345402868       -0.5852763792
 C          1.1100825434        2.5180596193        0.4198438049
 C          1.4311512107        3.4984165112        1.3504892391
 C          0.5048572006        3.8954602177        2.2987155524
 C         -0.7406451990        3.2977594739        2.3566620136
 C         -1.0715038839        2.3142224136        1.4298940679
 C         -0.1604616306        1.9607547455        0.4471718040
 H         -0.4275663308        1.2095436670       -0.2754096558
 N         -2.3189562218        1.6742298539        1.4773174804
 S         -2.4497078515        0.0029141976        1.3017727697
 O         -3.3299647814       -0.4135185388        2.3770051316
 O         -1.1543870760       -0.6275977624        1.2634761759
 C         -3.3339810762       -0.1774599388       -0.2346060362
 C         -4.7143372673       -0.1183972584       -0.1769631401
 C         -5.4450965332       -0.2311606171       -1.3474838544
 C         -4.7864785206       -0.4005997188       -2.5562928781
 C         -3.4027279264       -0.4578392245       -2.5977270149
 C         -2.6638410434       -0.3441585995       -1.4290000382
 H         -1.5854641982       -0.3853763374       -1.4508620036
 H         -2.8839543645       -0.5887387339       -3.5340412339
 H         -5.3530974658       -0.4899738376       -3.4698554109
 H         -6.5218528322       -0.1878780035       -1.3143648077
 H         -5.1844135399       -0.0006797287        0.7854041668
 H         -2.9078592134        1.9854636739        2.2365718454
 H         -1.4518335152        3.5822362552        3.1178881628
 H          0.7635670599        4.6601994306        3.0155755910
 H          2.4196786732        3.9337692585        1.3418167654
 H          3.1034663410        2.4541273828       -0.2976288662
 C          1.7919058926        2.5247893381       -1.9792201167
 C          2.1505144597        3.9283119656       -2.3607911009
 C          2.8991716542        2.7745062391       -2.9563643574
 H          2.7342691395        2.5280115111       -3.9942794287
 H          3.9106762821        2.5947802288       -2.6212421482
 H          1.4693236200        4.4792600636       -2.9906823755
 H          2.6577726557        4.5345223418       -1.6255300152
 H          0.8690366368        2.1163666380       -2.3676869809
