  62
        -98.94414029
 C         -2.2323312710       -0.8187017906        0.4396746803
 C         -2.4848247360       -0.0498219464       -0.7224865831
 C         -3.3601576529        1.1145465768       -0.5345723065
 C         -3.8192583860        1.4170184696        0.6933158612
 C         -4.7014968291        2.5835631190        1.0469090852
 C         -6.1973009901        2.3236566775        0.8209821875
 C         -6.6377593229        2.2890387778       -0.6430193938
 H         -7.7291665485        2.3173784803       -0.6491046180
 H         -6.2860238343        3.1891087780       -1.1481462311
 C         -6.1722325990        1.0469268353       -1.4156997666
 H         -5.8682340523        0.2710997507       -0.7091529707
 H         -7.0071428366        0.6437312937       -1.9931517384
 C         -5.0258200000        1.3014098143       -2.3945830900
 H         -5.3615617994        1.9768695888       -3.1844376851
 H         -4.7536061121        0.3498011317       -2.8579070985
 C         -3.7644564767        1.8919356001       -1.7506381609
 H         -2.9466724160        1.8261970042       -2.4724072895
 H         -3.9259831009        2.9396551671       -1.4980517978
 H         -6.4646754810        1.3813370129        1.3048488322
 H         -6.7459835164        3.1227947594        1.3247676079
 H         -4.5432013608        2.7825326180        2.1091703473
 H         -4.3935130346        3.4622007410        0.4793735475
 O         -3.5044160220        0.6833748665        1.7954740958
 C         -2.7245633875       -0.4579528136        1.6928653267
 O         -2.5316818164       -1.0479007071        2.7769533704
 O         -2.0057664490       -0.3171379780       -1.8539812729
 C         -1.3744250094       -2.0666282629        0.3475305211
 C          0.0127940250       -1.7225553532       -0.1406306941
 C          0.7030359404       -2.4878443122       -1.0713081755
 C          1.9856683492       -2.1362876248       -1.4558569002
 C          2.6072925563       -1.0221824339       -0.9235561183
 C          1.9306133527       -0.2554045374        0.0162043409
 C          0.6488505895       -0.6130608819        0.4029677597
 H          0.1259580675       -0.0166591625        1.1420516322
 N          2.5564111426        0.8833614715        0.5608164701
 S          4.0282004685        0.6428272442        1.3391070196
 O          4.1115928759       -0.6826533922        1.9087750182
 O          4.1543856983        1.7488432797        2.2633849551
 C          5.2356272366        0.8264693277        0.0439276516
 C          6.1276719194       -0.1959176149       -0.2140469885
 C          7.0659726648       -0.0277140027       -1.2205983668
 C          7.0951631751        1.1530953506       -1.9466532082
 C          6.1933533890        2.1710348341       -1.6734019137
 C          5.2539487491        2.0102633529       -0.6674723190
 H          4.5383525325        2.7768488182       -0.4208693625
 H          6.2190482820        3.0877016364       -2.2403152441
 H          7.8249895226        1.2811916999       -2.7303714462
 H          7.7680540980       -0.8175082764       -1.4342488353
 H          6.0620398952       -1.0982564618        0.3725121731
 H          1.9447427534        1.4309959576        1.1493987959
 H          3.6026905877       -0.7409608595       -1.2262110619
 H          2.5072616670       -2.7379423769       -2.1843138348
 H          0.2357981344       -3.3601735283       -1.4977096754
 H         -1.2805735641       -2.4476777602        1.3759052130
 C         -2.0701122353       -3.1134029797       -0.4984409953
 C         -1.8671098220       -4.5713220751       -0.2192060747
 C         -3.1736041745       -3.9188696739        0.1164553270
 H         -4.0393139996       -4.1529380243       -0.4847133844
 H         -3.4022285200       -3.7323446687        1.1561951130
 H         -1.8391097528       -5.2574645125       -1.0522191301
 H         -1.2115003388       -4.8383758836        0.5960024783
 H         -2.1940068182       -2.7988813567       -1.5281929915
