  62
        -98.94359200
 C         -0.6750486916       -1.5666928422        0.1789111189
 C         -1.3756428739       -0.6086772200        0.9431886116
 C         -2.3350272128        0.2420258577        0.2177064970
 C         -2.4634587363        0.1007381211       -1.1151025263
 C         -3.2808658715        0.8835050882       -2.1222840434
 C         -4.4091911913        1.8061219655       -1.6681706900
 C         -5.6087351486        1.0895309710       -1.0486284235
 H         -6.3008629696        1.8457426066       -0.6720446712
 H         -6.1219460601        0.5302369666       -1.8348056210
 C         -5.2801885939        0.1100902349        0.0752151614
 H         -6.2195084628       -0.3316475635        0.4184566443
 H         -4.6662196863       -0.7035065711       -0.3165206017
 C         -4.5823270260        0.7195712160        1.2892510831
 H         -4.5554383816       -0.0453035358        2.0696877552
 H         -5.1682488279        1.5606035822        1.6647157989
 C         -3.1368411079        1.1947790239        1.0579216231
 H         -2.6367742461        1.2313519328        2.0300989753
 H         -3.1139464655        2.1971586008        0.6353693895
 H         -4.7606605437        2.3288780667       -2.5620134480
 H         -4.0257116211        2.5650863989       -0.9924915701
 H         -2.5505486952        1.4746724393       -2.6879983751
 H         -3.6823721035        0.1429134571       -2.8215319015
 O         -1.7554936573       -0.8336936488       -1.8137287192
 C         -0.8455764052       -1.6758865101       -1.2002227826
 O         -0.2772448961       -2.4709318478       -1.9736010501
 O         -1.1970496061       -0.4541518421        2.1820952020
 C          0.3717322892       -2.4337248233        0.8556133130
 C          1.7122260287       -2.1500428191        0.2235652072
 C          2.6048425072       -3.1333863686       -0.1803195566
 C          3.7851113715       -2.7849418082       -0.8152040537
 C          4.0887667433       -1.4616622488       -1.0760992354
 C          3.2088201448       -0.4688747908       -0.6583702123
 C          2.0523885817       -0.8189494153        0.0157064978
 H          1.3729178602       -0.0447972863        0.3410114213
 N          3.4765332599        0.8876674677       -0.8922255944
 S          2.2156385361        1.9606647381       -1.1372009715
 O          1.0979550401        1.3589529503       -1.8272081380
 O          2.8380787307        3.0851614892       -1.8070539780
 C          1.7500651606        2.4676718482        0.5037478295
 C          2.7493668148        2.7871074828        1.4019507512
 C          2.3953407931        3.2136304114        2.6714754790
 C          1.0564239902        3.3209861883        3.0163040439
 C          0.0656914674        3.0034883157        2.1007288459
 C          0.4133161002        2.5709022526        0.8309415930
 H         -0.3269856648        2.2928471291        0.0958374428
 H         -0.9751013719        3.0813829569        2.3700796211
 H          0.7805659877        3.6518000925        4.0051369581
 H          3.1625017065        3.4599019820        3.3877951773
 H          3.7775982440        2.6931730361        1.0953079714
 H          4.2615045036        1.0744103303       -1.4988327903
 H          4.9923173310       -1.1955821463       -1.6030701751
 H          4.4682318524       -3.5582123469       -1.1326326314
 H          2.3702498854       -4.1721783802       -0.0155144888
 H          0.4001503291       -2.0986042145        1.9031818210
 C         -0.0237252280       -3.8940991656        0.8171874832
 C          0.4440889003       -4.8322595540        1.8886024822
 C         -0.9922586102       -4.4090783101        1.8380679743
 H         -1.7342701453       -5.1290897098        1.5271404315
 H         -1.3475065923       -3.7090231074        2.5800076979
 H          0.6872936777       -5.8476779967        1.6143588917
 H          1.0639904626       -4.4252473603        2.6728762689
 H         -0.1143596969       -4.2722595495       -0.1950910230
