  62
        -98.93711074
 C         -2.3302347089       -1.0061599428        0.4091621878
 C         -2.5549629310        0.0669896875       -0.4838234359
 C         -3.6023055023        1.0348814300       -0.1037584861
 C         -4.2746247002        0.8756075120        1.0506764442
 C         -5.3476353854        1.7197197062        1.7059370589
 C         -6.1165373816        2.7691164235        0.9067691385
 C         -7.0119472051        2.2068518246       -0.1963958537
 H         -7.8368565922        1.6609764319        0.2683279835
 H         -7.4388012139        3.0466478973       -0.7491736257
 C         -6.3300384765        1.2601941588       -1.1811770944
 H         -6.0042965686        0.3584879747       -0.6584438627
 H         -7.0759579884        0.9513434165       -1.9186432992
 C         -5.1428499800        1.8494993098       -1.9408051135
 H         -5.4438104429        2.7771937636       -2.4314463893
 H         -4.8646724843        1.1345257181       -2.7198923985
 C         -3.8852070064        2.1249278443       -1.0973249899
 H         -3.0264133837        2.1575732789       -1.7740303877
 H         -3.9443388039        3.0898873966       -0.5996363639
 H         -6.7607299881        3.2905109012        1.6200740334
 H         -5.4343794759        3.5099106215        0.5001585871
 H         -6.0588454859        1.0084091405        2.1375115408
 H         -4.8599655071        2.2185202318        2.5508396382
 O         -4.0055715519       -0.1616908518        1.8953583572
 C         -3.0576897166       -1.1200714634        1.5979086233
 O         -2.9567257133       -2.0185303036        2.4566837741
 H          0.1385408657       -0.1417697987       -0.9778456279
 C          0.6974514846       -0.6659603748       -0.2165424435
 C          0.0881428390       -1.6994526516        0.4804742480
 C          0.8185592450       -2.3596869175        1.4615766112
 C          2.1245123282       -1.9922787013        1.7345871745
 C          2.7267539260       -0.9588907361        1.0394831238
 C          2.0045036108       -0.2905612707        0.0596217976
 N          2.5975785664        0.7772900037       -0.6374941266
 S          4.0915194552        0.5166242573       -1.3568324842
 O          4.1777868491        1.4917136912       -2.4219837789
 O          4.2636296414       -0.8666546463       -1.7371744954
 C          5.2610847982        0.9470678655       -0.0846715506
 C          5.1606751516        2.1953295526        0.4979163438
 C          6.0719270138        2.5504844203        1.4795538566
 C          7.0645188954        1.6582483848        1.8573335655
 C          7.1538742782        0.4100307802        1.2605744864
 C          6.2445702552        0.0480445977        0.2787345774
 H          6.2709700793       -0.9134382790       -0.2087759800
 H          7.9261828049       -0.2820209026        1.5557140784
 H          7.7724537392        1.9378140597        2.6215597101
 H          6.0053845529        3.5200318020        1.9464447392
 H          4.3768087432        2.8595911843        0.1739211845
 H          1.9657756675        1.2280672857       -1.2842769503
 H          3.7434538306       -0.6681956887        1.2483250652
 H          2.6795543620       -2.5147412602        2.4987097414
 H          0.3515905943       -3.1600228967        2.0171377382
 C         -1.3259737156       -2.1204833424        0.1570600452
 H         -1.6009096229       -2.9226813477        0.8549660297
 C         -1.4037298205       -2.6716642840       -1.2547694442
 C         -0.9042618406       -4.0578234165       -1.5229295571
 C         -2.3747111299       -3.7696428628       -1.5619208742
 H         -2.8764675829       -3.7612640501       -2.5179293672
 H         -2.9876038705       -4.1354213721       -0.7506627699
 H         -0.3907743224       -4.2485775205       -2.4529220059
 H         -0.5208228555       -4.6220932299       -0.6863100297
 H         -1.2437101177       -1.9226441020       -2.0191786686
 O         -1.9203386158        0.2431861962       -1.5598155343
