  62
        -98.94321464
 C         -1.8283642326       -0.6489021309        0.0101715024
 C         -2.3575190131        0.5774170859        0.4889222517
 C         -3.6684269527        0.9735599158       -0.0413863272
 C         -4.2730531290        0.1871956067       -0.9502868773
 C         -5.6273890785        0.4432170342       -1.5439539679
 C         -6.7320570719       -0.2346374294       -0.7213448878
 C         -6.6409930865        0.0413073868        0.7793966511
 H         -7.4871140219       -0.4598021195        1.2544778679
 H         -5.7320751123       -0.4199664670        1.1722123531
 C         -6.6535572046        1.5302298672        1.1527411197
 H         -7.0398918847        2.1184060222        0.3195650371
 H         -7.3341296235        1.6747266060        1.9944583053
 C         -5.2946152905        2.0891496258        1.5790725604
 H         -4.8602259287        1.4484442432        2.3507141339
 H         -5.4565548467        3.0739332802        2.0256412286
 C         -4.2612486052        2.2610460697        0.4582823802
 H         -4.7023190661        2.8270847109       -0.3650071133
 H         -3.4250158165        2.8396708927        0.8621842116
 H         -7.6992034870        0.1037478852       -1.0974281248
 H         -6.6654829787       -1.3139954521       -0.8755536138
 H         -5.8005344163        1.5166335790       -1.5905424998
 H         -5.6401507113        0.0378093483       -2.5570800525
 O         -3.7299747430       -0.9704317552       -1.3992381394
 C         -2.5056162502       -1.4270903753       -0.9296086274
 O         -2.1592640153       -2.5164473173       -1.4224490316
 H          1.1290746186        1.0600617390        0.2595362397
 C          1.3149431008        0.3162464150       -0.5017442764
 C          0.5841413827       -0.8650160678       -0.5123329669
 C          0.8332258200       -1.7949937796       -1.5165203045
 C          1.7826574180       -1.5377204585       -2.4883595822
 C          2.5191757774       -0.3665255202       -2.4657758090
 C          2.2813088579        0.5675775855       -1.4654178494
 N          3.0250367043        1.7627947199       -1.4015585456
 S          3.8296154713        2.0853277453        0.0326674099
 O          2.8948896923        2.4898159281        1.0501313788
 O          4.8468250593        3.0504005566       -0.3232233712
 C          4.5829888274        0.5256050810        0.4584807369
 C          5.7559946067        0.1699169998       -0.1783739841
 C          6.3078538588       -1.0745946386        0.0774947570
 C          5.6741148481       -1.9422336603        0.9539622902
 C          4.4981902547       -1.5699540831        1.5865096121
 C          3.9432596914       -0.3245053161        1.3375309707
 H          3.0321248407        0.0047278878        1.8106752313
 H          4.0084094674       -2.2463118080        2.2689320580
 H          6.0990265292       -2.9142408195        1.1483850845
 H          7.2250868732       -1.3653544815       -0.4086829672
 H          6.2203122702        0.8775932836       -0.8460201370
 H          3.6539062503        1.8900211439       -2.1823529582
 H          3.2663792250       -0.1713399444       -3.2201236007
 H          1.9578795476       -2.2629329339       -3.2682879228
 H          0.2541326305       -2.7028918066       -1.5519370217
 C         -0.4718135332       -1.0805971645        0.5451319128
 H         -0.2606567146       -0.3863713097        1.3702661531
 C         -0.4749321005       -2.4930222611        1.0931303114
 C          0.6266064015       -2.9112239063        2.0185571596
 C         -0.7608832883       -2.7100893679        2.5475713381
 H         -1.3367172934       -3.5770777092        2.8348591428
 H         -0.9552620997       -1.8377959207        3.1551130411
 H          1.0089783900       -3.9173310401        1.9450087562
 H          1.3710368464       -2.1696765914        2.2659195279
 H         -0.8631651057       -3.2275453372        0.4000694472
 O         -1.7624754943        1.3053017777        1.3292721516
