  62
        -98.94432146
 C          2.3731914560        1.1355286308        0.2099765885
 C          2.3755077025       -0.1667306104       -0.3460909252
 C          3.3820878751       -1.0923144611        0.1959600993
 C          4.2031143908       -0.6779653300        1.1778084587
 C          5.3056637524       -1.4983520812        1.7805196628
 C          6.6302460550       -1.2816990608        1.0353168504
 C          6.5122930096       -1.4085457320       -0.4834764050
 H          5.8888876741       -0.5952548592       -0.8618067889
 H          7.5119126982       -1.2682329709       -0.9002364326
 C          5.9410581450       -2.7492473646       -0.9658509520
 H          6.0133378786       -3.4913131793       -0.1699636210
 H          6.5470006137       -3.1087037303       -1.8001839360
 C          4.4958205753       -2.6806605852       -1.4631010458
 H          4.3980906721       -1.8756902525       -2.1959165844
 H          4.2670304799       -3.6188652172       -1.9758246828
 C          3.4268936895       -2.4793296242       -0.3812258427
 H          2.4484873792       -2.6434128070       -0.8432166595
 H          3.5583908611       -3.2214597264        0.4090605219
 H          7.3575629016       -2.0054150897        1.4074750567
 H          6.9977690947       -0.2795879673        1.2675387215
 H          5.4302005184       -1.1942984841        2.8211420005
 H          5.0268035505       -2.5498687670        1.7506726800
 O          4.1502992511        0.5704392062        1.7074220907
 C          3.2402208812        1.5030147742        1.2418520909
 O          3.2992134167        2.6082931335        1.8162575519
 H         -0.5800136982        0.9470839007       -1.7368756964
 C         -0.8697817355        1.1054836447       -0.7104628952
 C         -0.0009983293        1.7396664270        0.1621610396
 C         -0.3884678497        1.9019094062        1.4898341143
 C         -1.6167115447        1.4441762996        1.9265352814
 C         -2.4810946886        0.8068404060        1.0523825641
 C         -2.0962578156        0.6246795098       -0.2682260649
 N         -2.9608846846       -0.0252728811       -1.1640502799
 S         -3.7444519318       -1.4223136311       -0.6668384537
 O         -2.9815310534       -2.1519555940        0.3193555955
 O         -4.0614589936       -2.1298444358       -1.8885092052
 C         -5.2566758264       -0.8162868605        0.0551608007
 C         -6.0265827535        0.0613190104       -0.6829931791
 C         -7.2090930716        0.5355867589       -0.1382541894
 C         -7.6020956927        0.1240830082        1.1266367020
 C         -6.8207191865       -0.7610032107        1.8532782603
 C         -5.6358795245       -1.2381835956        1.3143794627
 H         -4.9930017453       -1.9221601170        1.8456694076
 H         -7.1276287320       -1.0805083044        2.8362822637
 H         -8.5224152370        0.4955048675        1.5489430477
 H         -7.8191876250        1.2242858807       -0.7002001764
 H         -5.6874242497        0.3549808027       -1.6622050890
 H         -2.5671477390       -0.1453830611       -2.0863582875
 H         -3.4347620087        0.4354627979        1.3898470171
 H         -1.9051913186        1.5802908497        2.9578231994
 H          0.2963615154        2.3806986461        2.1764394954
 C          1.3783026630        2.1881076936       -0.2549155379
 H          1.6229143733        3.1003498723        0.3051977315
 C          1.5140723647        2.4750208355       -1.7353841643
 C          0.8828368345        3.7093431410       -2.3039397211
 C          2.3735332463        3.6175170207       -2.1822730431
 H          2.9591802902        3.4995744726       -3.0817672082
 H          2.8625529741        4.2033419813       -1.4176527612
 H          0.4435492292        3.6586441648       -3.2885125588
 H          0.3577600618        4.3584214175       -1.6197400348
 H          1.5260744901        1.5813689991       -2.3470996269
 O          1.5890758203       -0.5462444361       -1.2541916654
