  62
        -98.93553835
 C         -2.7837477199       -0.3278073197       -0.2242775592
 C         -2.0476677601        0.5578600302       -1.0461224494
 C         -2.0959696002        1.9858678003       -0.6842260296
 C         -2.8253243902        2.3831845504        0.3710810703
 C         -3.0488569203        3.7795965904        0.8961530701
 C         -1.8427603604        4.7264867206        0.9432671499
 C         -0.4995816403        4.0538290308        1.2629637700
 H         -0.0166886703        4.5940625809        2.0796386499
 H         -0.6583306802        3.0287141008        1.6045350401
 C          0.4641862496        4.0402633307        0.0746087299
 H          0.4335351295        5.0148832106       -0.4181211602
 H          1.4779504696        3.8905447308        0.4545271799
 C          0.2025087297        2.9427387805       -0.9553002499
 H          0.4278514598        1.9701365606       -0.5060146797
 H          0.8950969896        3.0888008704       -1.7886376399
 C         -1.2307079403        2.8916209102       -1.5124638098
 H         -1.6557306605        3.8885797302       -1.5972786199
 H         -1.1914021903        2.4437323801       -2.5090316997
 H         -1.7574731305        5.2576183904       -0.0036557302
 H         -2.0633047605        5.4761667207        1.7051287198
 H         -3.8423944204        4.2419575803        0.3014015801
 H         -3.4435088203        3.6413199705        1.9057734202
 O         -3.5390121001        1.4998817404        1.1258170405
 C         -3.5165411499        0.1428039104        0.8690802307
 O         -4.1923571498       -0.5375838596        1.6675431809
 H         -0.2338925899       -1.3869636096       -1.1692987392
 C         -0.2772327198       -2.0228332595       -0.2975010491
 C         -1.5131501497       -2.3895637795        0.2155745210
 C         -1.5458722696       -3.1929296793        1.3490344512
 C         -0.3714304395       -3.6012159891        1.9587613012
 C          0.8578661204       -3.2013753491        1.4643967110
 C          0.8969984503       -2.4013825092        0.3311074009
 N          2.1453097302       -1.9184807192       -0.1460185692
 S          2.7261038202       -0.7021585090        0.8863359606
 O          3.1994570403       -1.3371511787        2.0909286406
 O          1.7216639401        0.3239952310        1.0649921704
 C          4.1046718500       -0.0689694990       -0.0487171796
 C          3.9424674199        1.0827000709       -0.7940735698
 C          5.0100773298        1.5508263309       -1.5440576699
 C          6.2120263899        0.8593741010       -1.5393453099
 C          6.3581344300       -0.2969486888       -0.7872207797
 C          5.2957250801       -0.7691816488       -0.0333545996
 H          5.3640704602       -1.6571360987        0.5726835006
 H          7.2948456501       -0.8304434887       -0.7860063396
 H          7.0405687098        1.2259845510       -2.1244959900
 H          4.8986725397        2.4505005208       -2.1276493100
 H          2.9908888898        1.5900060408       -0.7645765798
 H          2.0225683101       -1.4994120893       -1.0613479393
 H          1.7782848105       -3.4708592789        1.9562551810
 H         -0.4145076194       -4.2213810790        2.8415263613
 H         -2.5011991395       -3.4720082594        1.7700597012
 C         -2.7789202098       -1.8412414497       -0.3995673390
 H         -3.6286251197       -2.2131125697        0.1883154611
 C         -2.9532830898       -2.2909714000       -1.8360071889
 C         -3.4322108997       -3.6848249301       -2.1043437687
 C         -4.3343250998       -2.5178406602       -2.3694704988
 H         -4.5411663399       -2.2445839304       -3.3931744588
 H         -5.1633071798       -2.3499730502       -1.6971322288
 H         -3.6513214296       -4.3107291500       -1.2524824286
 H         -3.0187725397       -4.2172502602       -2.9469579586
 H         -2.2240664599       -1.8680850600       -2.5134881190
 O         -1.3741212301        0.2053607701       -2.0523218794
