  62
        -98.93303740
 C         -1.5299871317       -0.5330374956       -0.6850889986
 C         -2.8719952184       -0.8744832400       -0.9938115720
 C         -3.8871217590       -0.5138940962        0.0044599475
 C         -3.5056232449        0.0542899575        1.1617786438
 C         -4.3934616954        0.4274326084        2.3196785839
 C         -5.4324446131        1.5344596122        2.0562763405
 C         -6.8154385424        1.0179505864        1.6403613270
 H         -6.9354633190       -0.0008952204        2.0108761404
 H         -7.5787993651        1.6224968456        2.1343915158
 C         -7.1182272488        1.0554250940        0.1392961815
 H         -7.3655247583        2.0796418253       -0.1491132446
 H         -8.0037078835        0.4413815096       -0.0384908867
 C         -5.9932791276        0.5798819610       -0.7801034628
 H         -5.2192406694        1.3487034706       -0.8398353353
 H         -6.3993776001        0.4719227473       -1.7878247498
 C         -5.3275515796       -0.7420421891       -0.3509760798
 H         -5.8626495337       -1.1887721082        0.4857888839
 H         -5.3350158705       -1.4504366887       -1.1818313027
 H         -5.0441177105        2.2285703917        1.3114224427
 H         -5.5432984594        2.0903812267        2.9886793195
 H         -3.7153026900        0.7552806746        3.1104523081
 H         -4.9041584388       -0.4719081747        2.6719811884
 O         -2.2025305596        0.3242160409        1.4422593380
 C         -1.1842264361        0.0517244588        0.5346756055
 O         -0.0554769024        0.3794956330        0.9410146252
 O         -3.2074717956       -1.4656027080       -2.0546943374
 C         -0.4659880644       -0.9108398094       -1.7011449789
 C          0.6083685425       -1.7379096998       -1.0429123375
 C          0.3253790925       -3.0667447944       -0.7373888404
 C          1.2758477041       -3.8761721555       -0.1471228595
 C          2.5268217367       -3.3696294105        0.1572464392
 C          2.8159951450       -2.0412378524       -0.1269808056
 C          1.8615962125       -1.2323775119       -0.7303525294
 H          2.0950257709       -0.2013667450       -0.9393418303
 N          4.0891301237       -1.5077529338        0.1627927706
 S          4.1774668190       -0.2670368324        1.3001651830
 O          5.5497331030       -0.3196497362        1.7669291330
 O          3.1650849438       -0.4122237176        2.3191918702
 C          3.9635292137        1.2316334612        0.3683769377
 C          2.8190356664        1.9872126069        0.5203474103
 C          2.7119841240        3.1761194498       -0.1862684620
 C          3.7359810860        3.5782793802       -1.0297811869
 C          4.8743838402        2.7994865764       -1.1773932344
 C          4.9942313695        1.6162684603       -0.4677273978
 H          5.8677619337        0.9894730182       -0.5352730717
 H          5.6666730038        3.1136579840       -1.8375837690
 H          3.6438724700        4.5041550899       -1.5759054469
 H          1.8244152500        3.7789498548       -0.0755397572
 H          2.0295507271        1.6248974665        1.1601284791
 H          4.7654398941       -2.2165923497        0.4149113630
 H          3.2755275120       -3.9961893275        0.6195245407
 H          1.0434898729       -4.9059886901        0.0793031594
 H         -0.6554089304       -3.4577423686       -0.9720458836
 H         -0.9997542041       -1.5674736164       -2.4082840067
 C          0.0836045747        0.2422262428       -2.5258267614
 C         -0.8367536260        1.3156662430       -3.0247124782
 C          0.2174383982        1.6419016588       -2.0118562772
 H          1.0745696954        2.2166918005       -2.3305937072
 H         -0.0841945899        1.8379418961       -0.9958149962
 H         -0.7133037847        1.6752152461       -4.0349433774
 H         -1.8654110109        1.2759826573       -2.6963124242
 H          0.8512608585       -0.0941876742       -3.2162182621
