  62
        -98.94609385
 C         -1.0983928711       -1.5347206199       -0.2134069394
 C         -1.1875277502       -0.1276771100       -0.3576810204
 C         -2.2794134098        0.5216530412        0.3811108792
 C         -3.0769697602       -0.2010839077        1.1858227897
 C         -4.2053031299        0.3275972835        2.0295690793
 C         -5.5287071798        0.4978767539        1.2705854192
 C         -5.5695306790        1.6676808132        0.2864827884
 H         -6.6128556290        1.8036470037       -0.0052032916
 H         -5.2523653285        2.5785107134        0.7953150178
 C         -4.7254775992        1.4604735318       -0.9788452714
 H         -4.4878703799        0.3998751516       -1.0875186507
 H         -5.3082382890        1.7503439916       -1.8559802016
 C         -3.4252046387        2.2635746210       -1.0120184020
 H         -3.6551348780        3.3310375611       -1.0342045927
 H         -2.8904969388        2.0123843500       -1.9310888918
 C         -2.4857546888        1.9911598112        0.1699646682
 H         -1.5104973286        2.4285528304       -0.0556453621
 H         -2.8745049385        2.4532670021        1.0776567579
 H         -6.3131233197        0.6496331249        2.0157630891
 H         -5.7488254004       -0.4322252764        0.7415013899
 H         -3.9130355193        1.2787647637        2.4760999187
 H         -4.3583773103       -0.3981280958        2.8314948298
 O         -2.9276682311       -1.5437069577        1.3414941306
 C         -1.9569327515       -2.2359827088        0.6384142111
 O         -1.9587991323       -3.4666034787        0.8508358019
 O         -0.4155524397        0.5751192591       -1.0615706509
 C         -0.0554341516       -2.3900942611       -0.9181434289
 C          1.2412454684       -2.3835475914       -0.1449600089
 C          1.8169443377       -3.5639520614        0.3096141319
 C          2.9972506877       -3.5360587817        1.0314751919
 C          3.6141219484       -2.3335324119        1.3269104511
 C          3.0440884592       -1.1482436918        0.8765527503
 C          1.8771496192       -1.1816853516        0.1294240503
 H          1.4397391597       -0.2589750415       -0.2134351203
 N          3.6382062900        0.0940592480        1.1438897994
 S          2.6639646008        1.4214343288        1.4561677286
 O          3.5259053014        2.3325527688        2.1853947879
 O          1.4484067706        1.0421396501        2.1410126088
 C          2.3102885813        2.1473952080       -0.1296659919
 C          1.2958288218        3.0807945186       -0.1852934226
 C          1.0126537022        3.6955095379       -1.3935863930
 C          1.7490501520        3.3686122367       -2.5207540428
 C          2.7691665214        2.4339171061       -2.4466137221
 C          3.0585283010        1.8164832368       -1.2401486517
 H          3.8365861506        1.0757805663       -1.1555623712
 H          3.3366778113        2.1768315552       -3.3269027320
 H          1.5211741923        3.8411827562       -3.4633961231
 H          0.2138368827        4.4178167684       -1.4532317935
 H          0.7408209520        3.2945137295        0.7152416373
 H          4.4430065900        0.0688466079        1.7528365395
 H          4.5249912785       -2.3097469620        1.9056818111
 H          3.4347683071       -4.4591081917        1.3807401725
 H          1.3237541371       -4.5042212712        0.1108473826
 H         -0.4500364822       -3.4153883308       -0.9027112682
 C          0.1830205086       -1.9866808722       -2.3606174391
 C          0.7476229380       -2.9952989732       -3.3133483985
 C         -0.6824666417       -2.5639307524       -3.4380422987
 H         -0.9634687813       -1.9309427228       -4.2661198992
 H         -1.4535085822       -3.2602863017       -3.1406789083
 H          1.4522678482       -2.6601422341       -4.0585125087
 H          0.9452823574       -3.9868610531       -2.9349429278
 H          0.4944866093       -0.9565279325       -2.4700567498
