  62
        -98.93697195
 C         -0.8913187755       -1.6648738249       -0.7679763014
 C         -2.0640198937       -2.0335929576       -0.0632185082
 C         -3.2081749895       -1.1088818525       -0.1340289022
 C         -3.0793432963        0.0273987080       -0.8404393991
 C         -4.0831029678        1.1377670737       -0.9875637178
 C         -3.8633455895        2.2148001396        0.0884056219
 C         -4.6039793033        1.9765066387        1.4031853823
 H         -4.2752796145        2.7452880846        2.1060314993
 H         -5.6755690677        2.1150261936        1.2446708792
 C         -4.3764861308        0.6024443441        2.0375949270
 H         -3.3196678305        0.3366926016        1.9717643618
 H         -4.6261475640        0.6752702404        3.0979283372
 C         -5.2311724721       -0.5031880864        1.4009528349
 H         -5.9919474607       -0.0481439229        0.7670416633
 H         -5.7657004349       -1.0454188630        2.1839888279
 C         -4.4470781995       -1.5496414373        0.5977353358
 H         -4.1027751039       -2.3410216180        1.2711341372
 H         -5.1225513816       -2.0265300049       -0.1210173467
 H         -2.7898189108        2.2780787674        0.2788306815
 H         -4.1877758474        3.1780085810       -0.3099756721
 H         -3.9086188896        1.5837868212       -1.9686243451
 H         -5.0964294487        0.7483410143       -0.9562591775
 O         -1.9370239912        0.3452751571       -1.5067393493
 C         -0.8227883415       -0.4825571046       -1.5063848200
 O          0.1185970637       -0.0491510371       -2.1929065625
 H          1.3191530578       -0.1760132947       -0.0886542758
 C          1.6336962961       -0.9285676346        0.6173746920
 C          1.1965766793       -2.2375518666        0.4685489941
 C          1.6084141928       -3.1898644753        1.3941468119
 C          2.4456486503       -2.8403437973        2.4384997848
 C          2.8993657044       -1.5404798456        2.5688242396
 C          2.4901987079       -0.5790828669        1.6512953078
 N          2.9137397028        0.7521063889        1.7661932838
 S          3.2754839189        1.6267407402        0.3819346044
 O          3.8268445639        0.7768928728       -0.6465608670
 O          4.1472629483        2.6844465653        0.8544476050
 C          1.7386042880        2.3626179326       -0.1230263123
 C          0.9076729847        2.8783991505        0.8524994954
 C         -0.2549785333        3.5232900535        0.4658964147
 C         -0.5625626074        3.6449155065       -0.8816155139
 C          0.2826190164        3.1224659808       -1.8460423667
 C          1.4477633218        2.4746858452       -1.4665076769
 H          2.1190980118        2.0368841494       -2.1872568997
 H          0.0367206260        3.2022175980       -2.8924960410
 H         -1.4693526622        4.1465153597       -1.1816442640
 H         -0.9170170785        3.9301331342        1.2142043496
 H          1.1794017756        2.7638106870        1.8889775221
 H          3.5825190469        0.9263246372        2.5025270260
 H          3.5615070672       -1.2666279146        3.3761280546
 H          2.7552712414       -3.5879041011        3.1529087767
 H          1.2564509805       -4.2064258685        1.2969907432
 C          0.2857960961       -2.6182043058       -0.6709844209
 H         -0.1621978690       -3.5930675081       -0.4189074637
 C          1.0344022353       -2.7994669519       -1.9834162208
 C          2.3518788345       -2.1622187145       -2.2942171441
 C          2.2797082220       -3.6352724343       -2.0325410621
 H          2.4152784109       -4.3160638848       -2.8594169216
 H          2.6757354501       -3.9939165711       -1.0942507088
 H          2.5096248440       -1.8220884865       -3.3068365835
 H          2.8127799871       -1.5200295639       -1.5592883046
 H          0.3490513525       -2.9013353415       -2.8197670927
 O         -2.1521677206       -3.1027805638        0.6006149862
