  62
        -98.94847277
 C         -0.8369557000       -1.2209752800        0.5658609108
 C         -1.2178452796       -0.5411105603       -0.6157592195
 C         -2.1580924592        0.5714465701       -0.4283773301
 C         -2.4832547492        0.9676031708        0.8149631997
 C         -3.4212124388        2.0895590613        1.1698328291
 C         -4.8977169990        1.6702295219        1.1994349991
 C         -5.5260305389        1.4225652615       -0.1727321209
 H         -6.6048978189        1.3500781620       -0.0215409811
 H         -5.3448081984        2.2851416512       -0.8145300713
 C         -5.0390113593        0.1455936211       -0.8720920603
 H         -5.8971803994       -0.3971935688       -1.2748863802
 H         -4.5616666996       -0.5108568788       -0.1407402800
 C         -4.0701975990        0.3843839502       -2.0307302703
 H         -3.7676260493       -0.5881586700       -2.4267399999
 H         -4.5818313887        0.9280528901       -2.8278232206
 C         -2.8004330088        1.1580716799       -1.6484887104
 H         -2.0855197287        1.0726035393       -2.4694403703
 H         -3.0375698284        2.2090755301       -1.4905587909
 H         -5.4551754787        2.4700045323        1.6926176587
 H         -4.9939818194        0.7717206521        1.8135501294
 H         -3.1382652888        2.4305404316        2.1681705990
 H         -3.2970223084        2.9151560510        0.4690469388
 O         -1.9702841196        0.3792507610        1.9303751100
 C         -1.1933747900       -0.7645526893        1.8339431506
 O         -0.8812270504       -1.2695722090        2.9328565008
 H          1.7076447902       -0.5787678307        1.1089288209
 C          2.0779623001       -1.1760506812        0.2875015612
 C          1.3093908897       -2.2294651211       -0.1929753284
 C          1.8118558596       -3.0007733017       -1.2329412481
 C          3.0497994998       -2.7140789124       -1.7813489880
 C          3.8094426701       -1.6616466325       -1.3059991583
 C          3.3188903003       -0.8900082119       -0.2578117187
 N          4.0770145206        0.1679907280        0.2637944210
 S          3.3441974510        1.5073652086        0.9216874103
 O          4.3792721114        2.5210054882        0.8984715501
 O          2.8034191707        1.2052555193        2.2238977404
 C          2.0403705714        1.9997192386       -0.1916462601
 C          2.2350870715        1.9212103380       -1.5560729100
 C          1.2519959318        2.4068594180       -2.4023721603
 C          0.1064917620        2.9801937187       -1.8745949807
 C         -0.0753608782        3.0499553893       -0.5028803308
 C          0.8960927915        2.5493874593        0.3478525196
 H          0.7863041113        2.5708445698        1.4212575095
 H         -0.9649383381        3.4953451098       -0.0883067411
 H         -0.6492554778        3.3742184387       -2.5351326210
 H          1.3851255820        2.3411461676       -3.4701315003
 H          3.1401271414        1.4857127975       -1.9466808197
 H          4.9189714507        0.3966311475       -0.2430677190
 H          4.7756848503       -1.4396809030       -1.7322917283
 H          3.4272517897       -3.3179144329       -2.5923431077
 H          1.2344320693       -3.8252684416       -1.6165088278
 C         -0.0166959905       -2.4945153203        0.4749932715
 H          0.1883518893       -2.7965340400        1.5130787216
 C         -0.8310919908       -3.5807920103       -0.1980486782
 C         -0.5883018714       -5.0217192302        0.1327644424
 C         -1.8330776412       -4.3411742996        0.6155460320
 H         -2.7763596112       -4.6036704594        0.1604011019
 H         -1.9094881613       -4.0934743891        1.6647953118
 H          0.1793565084       -5.2453692602        0.8581587826
 H         -0.6804075316       -5.7555454105       -0.6536405673
 H         -1.1049826005       -3.3261244606       -1.2153571184
 O         -0.8162129395       -0.8568584709       -1.7643824193
