  62
        -98.93904098
 C         -2.3298098283       -0.8176629799        0.6280271037
 C         -3.4317739828       -0.9706704550       -0.2490897586
 C         -4.6077716425       -0.1361321309        0.0439909048
 C         -4.5874894147        0.6968354968        1.0991461649
 C         -5.6913574326        1.6430483961        1.4708093456
 C         -5.4925946035        3.0146392246        0.8105565421
 C         -5.2031018241        2.9423737050       -0.6888438276
 H         -5.1126217034        3.9684642825       -1.0518388146
 H         -4.2338960914        2.4616469814       -0.8417425361
 C         -6.2708256158        2.2026692490       -1.5069893830
 H         -7.1959052185        2.1353020995       -0.9334019551
 H         -6.4878738739        2.7841565468       -2.4054614828
 C         -5.8588936466        0.8041232742       -1.9701989785
 H         -4.8846790589        0.8536346276       -2.4629845405
 H         -6.5852275347        0.4646314795       -2.7133527930
 C         -5.7900979664       -0.2675359876       -0.8749750003
 H         -6.7214038461       -0.2732559643       -0.3054744123
 H         -5.6809087261       -1.2384229435       -1.3666276261
 H         -6.3891522210        3.6131528476        0.9819420363
 H         -4.6517488460        3.5141228796        1.2975411541
 H         -6.6455396949        1.2167256990        1.1675093933
 H         -5.6867591044        1.7671070377        2.5550112951
 O         -3.5201517615        0.8046110170        1.9315066256
 C         -2.3734513157        0.0624369542        1.7143129313
 O         -1.4726661581        0.2639603351        2.5550263818
 H          1.3465421637       -0.3506945933        0.8072043657
 C          1.0576109163       -0.3948882304       -0.2332679033
 C         -0.1481993771       -0.9780845010       -0.5947925334
 C         -0.5055022327       -1.0003875317       -1.9392959748
 C          0.3343088860       -0.4570387082       -2.8938977936
 C          1.5489116433        0.0990769999       -2.5332188646
 C          1.9100511426        0.1355807070       -1.1914918897
 N          3.1240931447        0.7157280660       -0.7909927979
 S          3.9401769320        0.0451997195        0.5256707559
 O          3.9017506557       -1.3979234111        0.4481688702
 O          3.4330691509        0.6336550053        1.7398054791
 C          5.5932658541        0.6365463721        0.2134868755
 C          6.4862654707       -0.1762542730       -0.4591113534
 C          7.7587352056        0.3036650162       -0.7268341597
 C          8.1135742947        1.5818152723       -0.3222276044
 C          7.2066807986        2.3855048464        0.3528032674
 C          5.9330141135        1.9116565309        0.6245257818
 H          5.1973443043        2.4950951982        1.1535744086
 H          7.4870653612        3.3773980659        0.6687090002
 H          9.1042442804        1.9532399966       -0.5315506658
 H          8.4670298425       -0.3197102678       -1.2483432775
 H          6.1687118738       -1.1659370716       -0.7458038899
 H          3.7457713112        0.9059689937       -1.5650197314
 H          2.2093727292        0.5094941967       -3.2820369248
 H          0.0455506778       -0.4786234286       -3.9339898959
 H         -1.4502350065       -1.4370346087       -2.2235098388
 C         -1.0277370631       -1.5873623397        0.4715558540
 H         -0.5018529536       -1.4750237980        1.4301511026
 C         -1.2314070761       -3.0684743900        0.2132260483
 C         -0.0801626938       -3.9996109152        0.4405335674
 C         -1.2553147610       -4.0176405283        1.3708964923
 H         -1.9305161823       -4.8593157496        1.3332790870
 H         -1.1286147700       -3.6026913021        2.3607544315
 H          0.0517113732       -4.8300578089       -0.2360189624
 H          0.8467337676       -3.5711534787        0.7947616840
 H         -1.8939940161       -3.2757786939       -0.6162532683
 O         -3.4599426469       -1.7569784982       -1.2323230696
