  62
        -98.94953089
 C         -1.6061711094        0.8623887904        0.7007812638
 C         -1.4427154847        1.6431490195       -0.4685509559
 C         -0.4182337604        2.6958138865       -0.3980016520
 C          0.3125530829        2.8320232679        0.7228228203
 C          1.3833691532        3.8636585278        0.9334184152
 C          2.7732465790        3.3531556129        0.5316629416
 C          2.8283332126        2.7129147511       -0.8555622216
 H          3.8703808808        2.4463139238       -1.0498649697
 H          2.2606430979        1.7794616388       -0.8599141303
 C          2.3089817642        3.6033219849       -1.9923096273
 H          2.3004024876        4.6481580794       -1.6778501321
 H          2.9960842032        3.5225833184       -2.8373267664
 C          0.9225735929        3.2103147194       -2.5071678446
 H          0.8957703116        2.1306290659       -2.6801209718
 H          0.7623626325        3.7037178168       -3.4700079505
 C         -0.2563510795        3.5835797928       -1.5989665752
 H         -0.1720946489        4.6307331524       -1.2980285644
 H         -1.1749139504        3.4658546425       -2.1816637599
 H          3.4690648761        4.1939664596        0.5694060356
 H          3.1007399488        2.6119550910        1.2647158179
 H          1.1343487166        4.7516909180        0.3551925144
 H          1.3974392160        4.1253572007        1.9932751836
 O          0.1632816996        2.0267538228        1.8066190673
 C         -0.7910657241        1.0207247299        1.8201136935
 O         -0.8151104831        0.3489309380        2.8711276625
 H         -0.2728503219       -1.2943009930        0.2561526828
 C         -1.0044705493       -1.6839624144       -0.4365548599
 C         -2.3231653449       -1.2601648626       -0.3339670402
 C         -3.2592906295       -1.7852350223       -1.2144445576
 C         -2.8681979095       -2.6844749192       -2.1921434825
 C         -1.5446304413       -3.0628145083       -2.3229304174
 C         -0.6028045364       -2.5526790731       -1.4361731610
 N          0.7515770087       -2.9092503674       -1.5197031362
 S          1.9163071973       -1.7598469824       -1.1599376572
 O          1.4935788377       -0.4290183710       -1.5249037713
 O          3.1119320394       -2.2467875309       -1.8177569303
 C          2.1402275928       -1.8962693203        0.5999877005
 C          2.1991810114       -0.7529478728        1.3701725850
 C          2.3879346944       -0.8698231422        2.7374629435
 C          2.5193954724       -2.1261112809        3.3074981932
 C          2.4669819310       -3.2663982416        2.5197025896
 C          2.2765188319       -3.1545910690        1.1520625036
 H          2.2268566329       -4.0166489247        0.5080594934
 H          2.5689735331       -4.2411132870        2.9690719659
 H          2.6596560511       -2.2140258122        4.3732635512
 H          2.4120315986        0.0185178495        3.3481851920
 H          2.0757820906        0.2063340488        0.8921319003
 H          1.0005686318       -3.4636897679       -2.3259123562
 H         -1.2383249640       -3.7412874757       -3.1046084320
 H         -3.6032758375       -3.0821666895       -2.8754394218
 H         -4.2909823075       -1.4817034354       -1.1455638396
 C         -2.6441828393       -0.2464024844        0.7372110090
 H         -2.5309007464       -0.7361221343        1.7157629111
 C         -4.0418851312        0.3261993018        0.6347595813
 C         -5.1984702376       -0.3923632723        1.2604792602
 C         -4.6886468469        0.8788972520        1.8679962598
 H         -5.2882219580        1.7723222250        1.7793637831
 H         -4.1284529059        0.8190397770        2.7899045314
 H         -4.9920173924       -1.3176629828        1.7766124412
 H         -6.1530821653       -0.3701567834        0.7568264607
 H         -4.2075350652        0.8547083720       -0.2969029235
 O         -2.1334636828        1.4886155733       -1.5098639361
