  62
        -98.94932362
 C         -1.4418037418       -1.5357431763        0.2806042909
 C         -1.6544562649       -0.5282890379        1.2515042291
 C         -2.7460269888        0.4140232549        0.9809592901
 C         -3.4651602134        0.2777463261       -0.1476864201
 C         -4.5976426590        1.1736329296       -0.5567353933
 C         -4.1185354291        2.3274868610       -1.4471568691
 C         -2.9165199671        3.0916220259       -0.8910631977
 H         -2.7161236575        3.9205902889       -1.5743712421
 H         -2.0304023323        2.4522395430       -0.9117989961
 C         -3.1075292352        3.6406490303        0.5295377880
 H         -4.1702548789        3.6891012893        0.7721896066
 H         -2.7187283879        4.6607530448        0.5602443465
 C         -2.3686660485        2.8518827440        1.6124147669
 H         -2.3363766244        3.4628205507        2.5188895795
 H         -1.3372796039        2.6866959290        1.2878602040
 C         -2.9882715276        1.4997718854        1.9905199708
 H         -4.0569095399        1.6244486055        2.1786288968
 H         -2.5134347071        1.1609685675        2.9161558000
 H         -4.9527079991        3.0175362839       -1.5908442678
 H         -3.8410548043        1.9216772670       -2.4228790740
 H         -5.0797586982        1.5675859936        0.3360898059
 H         -5.3205145489        0.5755198601       -1.1149227538
 O         -3.2231416583       -0.6913384299       -1.0668594842
 C         -2.1833994544       -1.5957426257       -0.8988550843
 O         -2.0365696111       -2.3882783425       -1.8489803363
 O         -0.9587633194       -0.4232681326        2.2989393816
 C         -0.2928802263       -2.5059086595        0.4812967032
 C          0.8159980058       -2.2255504568       -0.5060108425
 C          1.6370667332       -3.2135245352       -1.0359684684
 C          2.6551717858       -2.8780868158       -1.9123709850
 C          2.8903353792       -1.5611494212       -2.2649547098
 C          2.0756837927       -0.5651963161       -1.7377132999
 C          1.0535715327       -0.9077859204       -0.8686027483
 H          0.4131342329       -0.1291122131       -0.4877026699
 N          2.2574779011        0.7825533117       -2.0754928146
 S          1.9115473278        2.0002581769       -0.9843197755
 O          0.4910658172        2.1022990810       -0.7679210732
 O          2.5492310444        3.1680570850       -1.5546316012
 C          2.7652886964        1.5343903912        0.5106819121
 C          4.1406250572        1.6763829172        0.5132055589
 C          4.8566542267        1.2930185201        1.6341993681
 C          4.1886871687        0.7689336793        2.7312608437
 C          2.8097924682        0.6360068251        2.7149110777
 C          2.0862374714        1.0215709351        1.5962360853
 H          1.0123217389        0.9208372321        1.5719683871
 H          2.2799191732        0.2306968415        3.5622470951
 H          4.7441335505        0.4657464561        3.6047166650
 H          5.9291256884        1.4014731478        1.6498173960
 H          4.6188858532        2.1017091705       -0.3541953217
 H          3.0779064068        0.9857269585       -2.6259440834
 H          3.6848802509       -1.3050331179       -2.9487085925
 H          3.2805619670       -3.6555490346       -2.3241212437
 H          1.4748784796       -4.2451195610       -0.7694043855
 H          0.0996187572       -2.2832066048        1.4861774331
 C         -0.7717230598       -3.9421385140        0.4556192339
 C         -0.1051924103       -4.9786915154        1.3088100916
 C         -1.4772835148       -4.4898163474        1.6592189873
 H         -2.3186418538       -5.1490880669        1.5076556433
 H         -1.5859549592       -3.8341289813        2.5110040267
 H         -0.0050040028       -5.9801855687        0.9182610856
 H          0.7170290118       -4.6618307470        1.9324882053
 H         -1.1428644271       -4.2394050938       -0.5182894070
