  62
        -98.93721624
 C         -0.7298422654       -1.6122789713        0.0299404727
 C         -1.5671398535       -0.9978577642        0.9919626922
 C         -2.6506528598       -0.1260827760        0.5006107922
 C         -2.7483699166        0.0900816426       -0.8240100336
 C         -3.7599551446        0.9220710095       -1.5694420060
 C         -5.1298425589        0.2362227896       -1.6782482973
 C         -5.6423775230       -0.3740510895       -0.3767485031
 H         -4.9310487525       -1.1259507475       -0.0309352071
 H         -6.5784647479       -0.8922700881       -0.6009113503
 C         -5.9166627764        0.6239066238        0.7463612907
 H         -6.3981547442        0.0711791809        1.5569367827
 H         -6.6249940854        1.3759594183        0.3922114756
 C         -4.6909505602        1.3365616847        1.3251596853
 H         -4.9925830847        1.7766636825        2.2797331864
 H         -4.3798997631        2.1623423367        0.6902856607
 C         -3.5078247864        0.4192420417        1.6176063588
 H         -3.8598857062       -0.4500597572        2.1846510570
 H         -2.8143336331        0.9349970947        2.2914688830
 H         -5.0499557839       -0.5657391834       -2.4164785009
 H         -5.8507742190        0.9660394244       -2.0511293984
 H         -3.3622317853        1.0671745512       -2.5767555705
 H         -3.8595174634        1.9017445879       -1.1108625140
 O         -1.8926971875       -0.4877731676       -1.7150322225
 C         -0.8853082618       -1.3641164477       -1.3343899846
 O         -0.2414407691       -1.8296228567       -2.2912197892
 O         -1.4304775076       -1.1868604915        2.2308920463
 C          0.3404062970       -2.5419304968        0.5696272594
 C          1.6034563350       -1.7917804120        0.9092061474
 C          2.2785125919       -2.0535425734        2.0966395612
 C          3.4551066517       -1.3927393785        2.3993558688
 C          3.9730842409       -0.4507920190        1.5294389065
 C          3.3010927191       -0.1738850267        0.3440975902
 C          2.1229096845       -0.8421361888        0.0401092839
 H          1.6203386979       -0.6283691618       -0.8912414262
 N          3.8085042458        0.7753781952       -0.5563727912
 S          2.7607041060        1.8252992957       -1.3227914276
 O          2.1018213504        1.1781016713       -2.4268972488
 O          3.5917944403        2.9613029267       -1.6655023599
 C          1.5781780049        2.3160808501       -0.0809547565
 C          0.2294580995        2.1550123222       -0.3167204968
 C         -0.6745193732        2.5890355483        0.6399684146
 C         -0.2155119118        3.1561684418        1.8176193436
 C          1.1443428882        3.3044038638        2.0441561511
 C          2.0513470323        2.8880365831        1.0842501119
 H          3.1134409749        3.0108126865        1.2197519606
 H          1.4977426024        3.7463590044        2.9616833850
 H         -0.9241323060        3.4864701419        2.5606686798
 H         -1.7308479370        2.4739821525        0.4615152912
 H         -0.0881204803        1.6938175689       -1.2395220665
 H          4.6452413353        1.2482906966       -0.2468792130
 H          4.8913290538        0.0668364091        1.7605022730
 H          3.9707758062       -1.6075621849        3.3225546388
 H          1.8676583198       -2.7743715092        2.7877800193
 H         -0.0714351869       -2.9247217207        1.5178697568
 C          0.6054313404       -3.7454991542       -0.3240157736
 C          1.8204560340       -3.8803920584       -1.1863802752
 C          1.6726137726       -4.7379141307        0.0325405556
 H          1.4628291816       -5.7887940259       -0.0971870168
 H          2.3034625193       -4.5118973909        0.8785589126
 H          1.6934775035       -4.3246695490       -2.1617789647
 H          2.5464096163       -3.0821523180       -1.1715335428
 H         -0.3151616350       -4.1489949742       -0.7340160091
