  62
        -98.94089269
 C          2.6587879489        1.1281132560       -0.4030976310
 C          2.1310905930       -0.0273798720       -1.0290907238
 C          2.9795196474       -1.2277360657       -0.9776818948
 C          4.1780120733       -1.1671526702       -0.3700931003
 C          5.1147882301       -2.3267688690       -0.1981932127
 C          4.8566651027       -3.0555769274        1.1279431462
 C          3.3855635935       -3.3932942458        1.3720633008
 H          3.3285105745       -3.9335137087        2.3196789335
 H          2.8198945523       -2.4667861541        1.4994372679
 C          2.7347269207       -4.2342061584        0.2649672373
 H          3.5067946793       -4.7102026626       -0.3408380991
 H          2.1490792052       -5.0301713118        0.7297320443
 C          1.7828860073       -3.4568913158       -0.6463874347
 H          1.0611573040       -2.9047028409       -0.0375353643
 H          1.2197997752       -4.1799071439       -1.2428811409
 C          2.4467806537       -2.4765747922       -1.6219498522
 H          3.2336379198       -2.9890340004       -2.1790405626
 H          1.6821664862       -2.1450983937       -2.3304670096
 H          5.2008516361       -2.4187139345        1.9460674005
 H          5.4482055809       -3.9727742331        1.1390194788
 H          6.1372940763       -1.9456441147       -0.1995934186
 H          4.9917287116       -3.0141438376       -1.0326968346
 O          4.6568849508       -0.0361677280        0.2078511593
 C          3.9059200213        1.1257909350        0.2265688663
 O          4.4512044767        2.0788214227        0.8182746991
 O          1.0154885801       -0.0675270990       -1.6119953306
 C          1.8637927287        2.4236789040       -0.3361636713
 C          0.6792488532        2.1812734126        0.5672730971
 C          0.8605286356        2.2301591755        1.9468672838
 C         -0.1779472190        1.9247427074        2.8064037126
 C         -1.4155765865        1.5535837600        2.3095083078
 C         -1.6022523520        1.4927875908        0.9356625878
 C         -0.5639006947        1.8209550574        0.0730345715
 H         -0.7177732925        1.7537131791       -0.9920424898
 N         -2.8540028092        1.1044992554        0.4170015660
 S         -3.5493432996       -0.2722165590        1.1109608473
 O         -4.2324340783        0.1265754711        2.3172653221
 O         -2.5588640478       -1.3142276547        1.2661408876
 C         -4.7406057193       -0.7173160608       -0.1368685798
 C         -6.0094375176       -0.1732262050       -0.0798331819
 C         -6.9218860334       -0.4983201836       -1.0709702556
 C         -6.5516419678       -1.3550486878       -2.0968421954
 C         -5.2739323440       -1.8928871099       -2.1406318819
 C         -4.3560586763       -1.5714805736       -1.1531088102
 H         -3.3542232794       -1.9717688880       -1.1442706063
 H         -4.9887098535       -2.5596262279       -2.9385110151
 H         -7.2632145079       -1.6077031010       -2.8669818810
 H         -7.9166130780       -0.0840267823       -1.0402880832
 H         -6.2526668544        0.4811448518        0.7407852092
 H         -2.8138843087        1.0008354409       -0.5887584911
 H         -2.2286127917        1.2895352821        2.9666300569
 H         -0.0225544821        1.9667154989        3.8742948998
 H          1.8351126211        2.4927204094        2.3357748772
 H          2.5208632464        3.1550808430        0.1523573934
 C          1.5000249989        2.9392849539       -1.7123441367
 C          1.0310311559        4.3543025679       -1.8629023044
 C          2.3846382188        3.9555095042       -2.3670160549
 H          2.5405993763        3.8907648147       -3.4334189901
 H          3.2543134379        4.2875842492       -1.8189121693
 H          0.2567117742        4.5682524739       -2.5835301999
 H          0.9804712849        4.9583088894       -0.9695812098
 H          1.0592265952        2.1857686645       -2.3524788476
