  62
        -98.93809868
 C         -1.9310588525       -1.2381930876        0.0584091317
 C         -2.3525286462       -0.2120986124       -0.8169042830
 C         -3.7869824856        0.1440218913       -0.7835533062
 C         -4.6021094938       -0.5158683801        0.0598059378
 C         -6.0749842292       -0.3069556278        0.2920195821
 C         -6.3698235279        0.9407137464        1.1397939262
 C         -5.5733011677        2.1834900250        0.7513615895
 H         -4.5063936966        1.9639017340        0.8241818777
 H         -5.7935481000        2.9622305560        1.4864271532
 C         -5.8825685366        2.7479659735       -0.6332199287
 H         -5.3175123993        3.6779104224       -0.7370518366
 H         -6.9445247419        2.9975813694       -0.6893120611
 C         -5.5317393286        1.8457650231       -1.8184933652
 H         -5.5680023427        2.4651914231       -2.7195681995
 H         -6.2757936031        1.0650653360       -1.9519928091
 C         -4.1337002864        1.2376916979       -1.7651012790
 H         -3.4014054892        2.0361262886       -1.5980004187
 H         -3.8936200782        0.8309764881       -2.7550227305
 H         -6.1328186762        0.7059609377        2.1803949748
 H         -7.4379554957        1.1556476312        1.0776119998
 H         -6.6010606889       -0.2637169784       -0.6568923598
 H         -6.4342435965       -1.1860007563        0.8317260214
 O         -4.1469424755       -1.4957304585        0.8924640549
 C         -2.8211730871       -1.8731732081        0.9259570526
 O         -2.5583690605       -2.7711071012        1.7510557554
 H          1.1985373160        0.0730979848       -1.2013192725
 C          1.1437877505        0.2669919264       -0.1419528622
 C          0.3430307717       -0.5253453943        0.6648750316
 C          0.2771588253       -0.2373606050        2.0254323491
 C          0.9949457554        0.8145624480        2.5629450630
 C          1.7910403090        1.6067771561        1.7529244983
 C          1.8556529919        1.3318194873        0.3945768095
 N          2.6805467443        2.1284256515       -0.4319919835
 S          4.3248961891        1.9742556846       -0.1469585051
 O          4.6347607547        2.5543310949        1.1345848024
 O          4.9819602544        2.5600922079       -1.2929966746
 C          4.5975642595        0.2120816452       -0.1063197211
 C          4.4454358209       -0.4653070786        1.0868392114
 C          4.5648089229       -1.8458027118        1.0914163263
 C          4.8316802746       -2.5209798045       -0.0895844702
 C          4.9854008349       -1.8252820767       -1.2790178429
 C          4.8601490985       -0.4457069848       -1.2914516971
 H          4.9746877770        0.1337298987       -2.1936632048
 H          5.1972823250       -2.3538888345       -2.1945555165
 H          4.9210780152       -3.5959586343       -0.0833999968
 H          4.4444605636       -2.3889091621        2.0150993629
 H          4.2431101843        0.0949032328        1.9848098796
 H          2.4955593510        1.9896554204       -1.4158462617
 H          2.3691664661        2.4240458923        2.1530994628
 H          0.9346771369        1.0219488779        3.6207236263
 H         -0.3520149827       -0.8512390023        2.6555979384
 C         -0.4750567100       -1.6701497497        0.1208861712
 H         -0.4389523775       -2.4879579922        0.8530121706
 C          0.0170811311       -2.1878551109       -1.2145058874
 C          1.3175004856       -2.9305338679       -1.2751806641
 C          0.0250975025       -3.6632704701       -1.4712327835
 H         -0.2251151527       -4.0141885319       -2.4612133255
 H         -0.3238994831       -4.3095907658       -0.6792654526
 H          1.8503465519       -3.0740860631       -0.3474940222
 H          1.9593260578       -2.7803995814       -2.1297342074
 H         -0.2405209964       -1.5414634640       -2.0445301003
 O         -1.5775557942        0.3932553473       -1.6040812840
