  62
        -98.93615273
 C         -2.4886531093       -0.9420943074        0.5833178466
 C         -2.8372555304        0.3017131253        1.1709290338
 C         -4.2207873372        0.7486194698        0.9820612760
 C         -5.0829375074       -0.0300118769        0.3040914630
 C         -6.5335158785        0.2719286721        0.0420533396
 C         -6.7715714462        1.1760855953       -1.1751723389
 C         -6.3830668958        2.6425178442       -0.9824927522
 H         -6.8027251005        3.1981507775       -1.8234273235
 H         -6.8500155028        3.0246329516       -0.0742528784
 C         -4.8697775074        2.8958654761       -0.9308837834
 H         -4.3399102206        2.0309239010       -1.3368663942
 H         -4.6210348464        3.7492569794       -1.5657256507
 C         -4.3240662043        3.1968413636        0.4651731589
 H         -3.2403604290        3.3197970630        0.3904163706
 H         -4.7457032473        4.1362852901        0.8296342760
 C         -4.6040878758        2.1010672605        1.5019449762
 H         -5.6550693596        2.1143483747        1.7901514193
 H         -3.9945014286        2.3014252276        2.3865767714
 H         -6.2269255296        0.7640037656       -2.0276863019
 H         -7.8377752830        1.1327651834       -1.4090362512
 H         -7.0223828025       -0.6873645699       -0.1404896183
 H         -6.9785068174        0.7264895594        0.9275892001
 O         -4.7211750198       -1.2285501585       -0.2209161415
 C         -3.4172584287       -1.7062513804       -0.1253949546
 O         -3.2474541154       -2.7960527791       -0.7002946668
 O         -2.0256263781        1.0036891370        1.8335068348
 C         -1.0498133536       -1.3904738527        0.7590455733
 C         -0.1784284802       -0.9080602030       -0.3724448809
 C         -0.5591424943       -1.0630846795       -1.7019372037
 C          0.2704974097       -0.6335715077       -2.7216142920
 C          1.4975346350       -0.0595860663       -2.4387493165
 C          1.8831741293        0.1073130088       -1.1138895706
 C          1.0395876005       -0.3075623685       -0.0924039434
 H          1.3460927106       -0.1574689079        0.9323588491
 N          3.1120851224        0.7020071825       -0.7896695537
 S          3.9355281489        0.1158369273        0.5648398469
 O          3.8638563786       -1.3272517075        0.5950751339
 O          3.4529704730        0.8031144285        1.7361130145
 C          5.5953884361        0.6506854186        0.1954300463
 C          5.9416782167        1.9630595066        0.4573255754
 C          7.2212548653        2.3928471702        0.1439235404
 C          8.1277934630        1.5087633085       -0.4225687239
 C          7.7663715325        0.1943387861       -0.6771479913
 C          6.4875535002       -0.2420088454       -0.3677676800
 H          6.1645889152       -1.2561635809       -0.5400213753
 H          8.4745614720       -0.4912685131       -1.1138095787
 H          9.1233279027        1.8459135344       -0.6644156086
 H          7.5067818491        3.4131513095        0.3430776429
 H          5.2068081633        2.6101799965        0.9073653282
 H          3.7222839871        0.8102875811       -1.5883006656
 H          2.1482133863        0.2633939532       -3.2371286364
 H         -0.0360613824       -0.7604645615       -3.7491053379
 H         -1.5049937724       -1.5337694439       -1.9250773177
 H         -0.7053090246       -0.8770868276        1.6721854108
 C         -0.9004491502       -2.8854886365        1.0048772591
 C         -0.3340341719       -3.8388889388        0.0006497456
 C          0.4607923638       -3.4802802907        1.2182785218
 H          0.5827886565       -4.2210479247        1.9943384163
 H          1.3196197873       -2.8362306512        1.0889409136
 H         -0.7800948173       -4.8194953717       -0.0629376055
 H         -0.0129621993       -3.4461269002       -0.9510157144
 H         -1.7001030283       -3.2706302947        1.6301801335
