  62
        -98.93233234
 C         -2.1633589775       -0.9517008531        0.6293352548
 C         -3.2976528129       -0.9564261664       -0.2184955827
 C         -4.3085925188        0.0827302190        0.0445834436
 C         -4.1075422851        0.9667238747        1.0373143431
 C         -5.0005135880        2.1287963376        1.3681837464
 C         -4.7761197568        3.2723275701        0.3581606020
 C         -5.9843112009        3.5775682938       -0.5278553559
 H         -6.7240723049        4.1263991270        0.0586787194
 H         -5.6431405140        4.2371535223       -1.3285703382
 C         -6.6833640770        2.3628171044       -1.1457199576
 H         -7.3313356490        2.7393521815       -1.9400158268
 H         -7.3365244535        1.8992904456       -0.4049695365
 C         -5.7623419636        1.2846228684       -1.7309831225
 H         -4.7962298243        1.7098609767       -2.0037026106
 H         -6.2172736967        0.9128860636       -2.6512704574
 C         -5.5420798074        0.0653012915       -0.8162451871
 H         -6.4229606106       -0.0823598833       -0.1856793363
 H         -5.4323820083       -0.8247759512       -1.4424149485
 H         -4.5065959405        4.1833628009        0.8947567148
 H         -3.9189232330        3.0128907825       -0.2670543260
 H         -6.0397572411        1.8075769955        1.3582154675
 H         -4.7453133480        2.4565599104        2.3761300344
 O         -3.0017709068        0.9457025119        1.8275573253
 C         -2.0161346320       -0.0087029129        1.6510831499
 O         -1.0736940119        0.0779686516        2.4656169958
 H          1.5173936995       -1.0984652206        0.7389955750
 C          1.2073048390       -1.1600415916       -0.2938106388
 C         -0.0809753618       -1.5714028352       -0.6058414922
 C         -0.4645273329       -1.6213496223       -1.9421506418
 C          0.4253703154       -1.2611535564       -2.9371330156
 C          1.7075666565       -0.8472341939       -2.6228565096
 C          2.1026269719       -0.7985196607       -1.2908152378
 N          3.4161148112       -0.4264683107       -0.9538498483
 S          3.6929641663        0.4426305980        0.4667347110
 O          3.6457356756       -0.4664222840        1.5839333014
 O          2.8198538498        1.5941390491        0.5253979924
 C          5.3791127148        0.9530585648        0.1879998024
 C          5.6469320679        2.2474815370       -0.2144388851
 C          6.9616656902        2.6170478868       -0.4529382857
 C          7.9799075831        1.6902061235       -0.2890391887
 C          7.6956048076        0.3943607492        0.1162454638
 C          6.3839455139        0.0190607963        0.3583317968
 H          6.1155661840       -0.9723479072        0.6837807631
 H          8.4900516938       -0.3228118268        0.2452425274
 H          9.0018004796        1.9803404809       -0.4755974382
 H          7.1856893238        3.6245695948       -0.7643741001
 H          4.8233453004        2.9350852431       -0.3218720783
 H          3.9101484124       -0.0103887659       -1.7322964909
 H          2.4000310930       -0.5660115053       -3.4018949264
 H          0.1152013981       -1.2985624702       -3.9705620140
 H         -1.4702028902       -1.9238570615       -2.1887078704
 C         -1.0277510614       -1.9565583947        0.5064114890
 H         -0.4698717159       -1.8836625834        1.4505272546
 C         -1.5061759473       -3.3868433682        0.3452615405
 C         -0.5635692898       -4.5021550252        0.6784161037
 C         -1.7382546696       -4.2221544451        1.5661890134
 H         -2.5649426082       -4.9165102034        1.5653881528
 H         -1.5537179247       -3.7637773179        2.5274146561
 H          0.4187596425       -4.2332859201        1.0381347576
 H         -0.5813519244       -5.3914219114        0.0675089250
 H         -2.1813534010       -3.5261804863       -0.4879592549
 O         -3.4848590064       -1.7803216475       -1.1522637262
