  62
        -98.93877272
 C          2.0787280646        1.0791962506       -0.0419912458
 C          2.8239955505        0.4772845712        1.0030244281
 C          3.5353929434       -0.7780949784        0.6995782247
 C          3.4299280321       -1.2934932106       -0.5390667895
 C          4.0750692980       -2.5351889338       -1.0951475239
 C          5.5694990924       -2.3445840319       -1.3991148474
 C          6.3582915464       -1.6213346405       -0.3109088947
 H          7.3720101618       -1.4616503237       -0.6874479528
 H          5.9160302091       -0.6379039959       -0.1425840467
 C          6.4650115973       -2.3650875273        1.0182108636
 H          6.9268361225       -3.3399483225        0.8473133301
 H          7.1358059999       -1.7875530135        1.6592184577
 C          5.1516105115       -2.5742852622        1.7754991708
 H          4.5768955195       -3.3930773665        1.3507654971
 H          5.4083742377       -2.8728764952        2.7960140713
 C          4.2795101669       -1.3284045477        1.8924397286
 H          3.5127218236       -1.5090049937        2.6554269343
 H          4.8832921039       -0.5011528048        2.2824605676
 H          5.6546539398       -1.7594397476       -2.3180708177
 H          6.0106945376       -3.3258262430       -1.5820479264
 H          3.9204144313       -3.3702034987       -0.4181045035
 H          3.5554569550       -2.7654650217       -2.0281697600
 O          2.7016504565       -0.6819952338       -1.5150270751
 C          2.0035799000        0.4919912344       -1.3039934917
 O          1.3839757213        0.8879936762       -2.3136789903
 H         -0.5811901881        1.5283262686       -1.4433422162
 C         -0.9576638664        1.5742753135       -0.4320843357
 C         -0.1188820494        1.9954789162        0.5905606490
 C         -0.6123777224        2.0093964651        1.8900697405
 C         -1.9102019488        1.6092664971        2.1563304511
 C         -2.7365224093        1.1739649159        1.1354179223
 C         -2.2483161748        1.1478641830       -0.1639962671
 N         -3.0704377813        0.6509779631       -1.2035013772
 S         -3.3420730011       -1.0113766625       -1.1080345079
 O         -2.2340234670       -1.6925978327       -0.4749309531
 O         -3.6738949030       -1.4311419190       -2.4523532516
 C         -4.7946760787       -1.1323335311       -0.0853335957
 C         -5.9708388252       -0.5822492919       -0.5569155350
 C         -7.1086851574       -0.6618978559        0.2299647524
 C         -7.0515817186       -1.2877273676        1.4666125282
 C         -5.8637652031       -1.8376046091        1.9241050633
 C         -4.7215262833       -1.7607887526        1.1421811037
 H         -3.7738561170       -2.1678178556        1.4569257468
 H         -5.8209322382       -2.3239671175        2.8853941226
 H         -7.9382383846       -1.3479629901        2.0777574644
 H         -8.0343477153       -0.2363068520       -0.1223096697
 H         -5.9701434317       -0.1104503808       -1.5252537626
 H         -2.6899927883        0.8569501265       -2.1181778622
 H         -3.7445194284        0.8492021163        1.3360299163
 H         -2.2792881161        1.6273446951        3.1703479249
 H          0.0398684128        2.3141812643        2.6955584505
 C          1.3201524728        2.3513609752        0.3044090623
 H          1.7703779974        2.7088211374        1.2400399392
 C          1.4465393440        3.4422957747       -0.7386252672
 C          1.1435280583        4.8565281183       -0.3465136756
 C          2.5568420573        4.4413400879       -0.6215570743
 H          3.0327331232        4.7886500237       -1.5263009503
 H          3.2320298104        4.3421691743        0.2158053561
 H          0.6457575507        5.4930572832       -1.0616703913
 H          0.8603967075        5.0396895161        0.6788609157
 H          1.1721302558        3.1247143882       -1.7359739061
 O          2.9025485765        0.9757944892        2.1579912083
