  62
        -98.94788614
 C          0.9901535029        0.9837516928        0.7133516972
 C          1.6185792508        0.8743988002       -0.5503112037
 C          2.3088129853       -0.3947898524       -0.8093571753
 C          2.2548375943       -1.3842209210        0.0995914855
 C          2.8683227504       -2.7514686051       -0.0410992895
 C          4.3554027828       -2.8139173083        0.3342641284
 C          5.3090169397       -2.1614518254       -0.6671640104
 H          6.3202540199       -2.4686402196       -0.3931570751
 H          5.1088184634       -2.5527732722       -1.6651465261
 C          5.2487731107       -0.6278469127       -0.6923910009
 H          6.2632976737       -0.2232590231       -0.6880811531
 H          4.7552002913       -0.2673986597        0.2128903672
 C          4.5330505449       -0.0425153206       -1.9098946762
 H          4.5147100152        1.0454864242       -1.8079328891
 H          5.0911477991       -0.2863817173       -2.8166434897
 C          3.0867650960       -0.5250933167       -2.0830457979
 H          2.5970745900        0.1023809159       -2.8322978261
 H          3.0707229795       -1.5568553473       -2.4351604128
 H          4.6237217315       -3.8691267988        0.4234812140
 H          4.4865302139       -2.3523614538        1.3155200478
 H          2.3167207808       -3.4119288167        0.6319460528
 H          2.7309399427       -3.1079399927       -1.0629176420
 O          1.5924506302       -1.2594028179        1.2809822036
 C          0.9520019409       -0.0762172630        1.6175029823
 O          0.3872285754       -0.0967923837        2.7299597155
 H         -1.4388461524        0.3620033599        0.2578818987
 C         -1.6666838314        1.3012636283       -0.2246476583
 C         -0.9062672561        2.4218179685        0.0849343416
 C         -1.2210942502        3.6270554723       -0.5277837015
 C         -2.2504231631        3.6903388969       -1.4519506088
 C         -2.9718668383        2.5610644900       -1.7930503739
 C         -2.6733640355        1.3526434242       -1.1728184801
 N         -3.3866608304        0.1821379441       -1.4703539293
 S         -2.6084230872       -1.2984938184       -1.4296806776
 O         -1.2399113088       -1.2110323288       -1.8842342093
 O         -3.4725362159       -2.1714704419       -2.1986651605
 C         -2.6713479283       -1.7915935057        0.2787821307
 C         -1.5672213178       -2.3998006322        0.8408217235
 C         -1.6205359713       -2.7981911745        2.1664678498
 C         -2.7762270599       -2.5867206828        2.9014762081
 C         -3.8809703098       -1.9831711021        2.3199291336
 C         -3.8329816093       -1.5815174153        0.9948825838
 H         -4.6686471143       -1.1041248584        0.5109949740
 H         -4.7767141176       -1.8198930210        2.8973283702
 H         -2.8113448554       -2.8906133901        3.9357241686
 H         -0.7555017270       -3.2540335184        2.6207093636
 H         -0.6809801996       -2.5280789372        0.2378808867
 H         -4.0352073879        0.2535268371       -2.2407422710
 H         -3.7553437067        2.6089141459       -2.5338171921
 H         -2.4823683039        4.6311032452       -1.9278797706
 H         -0.6539259466        4.5129120282       -0.2935068782
 C          0.2227121522        2.2442720484        1.0721145862
 H         -0.2158280119        2.0622886193        2.0644485678
 C          1.1514911118        3.4365917120        1.1561401280
 C          0.8294405189        4.5812209157        2.0680073819
 C          1.9489918205        3.6449728766        2.4073155910
 H          2.9652226232        3.9984701263        2.3180958094
 H          1.8015424315        2.9388542660        3.2117038589
 H         -0.0770505931        4.5166755298        2.6504746491
 H          1.0798309097        5.5815330571        1.7483875537
 H          1.6370459992        3.6522833292        0.2114626592
 O          1.6084587561        1.7875927962       -1.4168799351
