  62
        -98.93780041
 C          1.2325737391       -0.9289364543       -0.2538428747
 C          1.6711854713        0.2012719337       -0.9853785990
 C          2.7349472026        1.0164052707       -0.3760705625
 C          3.1685130903        0.7020806584        0.8564651665
 C          4.2723990298        1.3607913296        1.6366203680
 C          5.6110157164        0.6410911233        1.3981900078
 C          6.4033560576        1.1361507061        0.1888119299
 H          6.7988196705        2.1312709031        0.4027136804
 H          7.2556887142        0.4646501003        0.0625094385
 C          5.6231665547        1.1928007583       -1.1271001228
 H          6.3461109763        1.1914758463       -1.9450362342
 H          5.0139821814        0.2932527546       -1.2323935030
 C          4.7361445603        2.4407730714       -1.2506182237
 H          4.9370127157        2.9347467158       -2.2035387686
 H          5.0093402955        3.1515859055       -0.4709367161
 C          3.2241197961        2.1762715516       -1.2001038083
 H          2.7118328428        3.0829119780       -0.8588005350
 H          2.8558473787        1.9743477568       -2.2110409087
 H          5.4022477447       -0.4265062067        1.2906348607
 H          6.2362428276        0.7632463418        2.2849295086
 H          4.0064996388        1.2642547365        2.6915172948
 H          4.3418436966        2.4162902049        1.3902170633
 O          2.6595210279       -0.3425242637        1.5642363025
 C          1.6784329644       -1.1738828386        1.0454396670
 O          1.3043546609       -2.0634708692        1.8319061577
 O          1.1926417972        0.5173721883       -2.1087311846
 C          0.1396591116       -1.7841768748       -0.8675501353
 C         -1.0211333995       -1.9075431030        0.0878311350
 C         -1.6548299526       -3.1018353087        0.4031860964
 C         -2.7360656031       -3.1096593121        1.2683123809
 C         -3.2229603323       -1.9360788906        1.8139165534
 C         -2.5924255252       -0.7353671891        1.5064301964
 C         -1.5007924402       -0.7344611786        0.6557618805
 H         -0.9953232778        0.1973008077        0.4527118724
 N         -3.0462093342        0.4836150319        2.0316110658
 S         -2.9217945915        1.8715426754        1.1100005748
 O         -1.5647843506        2.3601372505        1.1103185163
 O         -3.9098401904        2.7645471344        1.6779889401
 C         -3.4243982507        1.3812941452       -0.5309257564
 C         -4.7398897340        0.9940583014       -0.7019470899
 C         -5.1576784285        0.5631334849       -1.9498676950
 C         -4.2553043424        0.5214044350       -3.0022373766
 C         -2.9409592166        0.9195924543       -2.8169554124
 C         -2.5180449740        1.3556169481       -1.5707466788
 H         -1.4980519872        1.6647153970       -1.4011099106
 H         -2.2322092705        0.8879974001       -3.6293048027
 H         -4.5770098408        0.1788908065       -3.9730146008
 H         -6.1809684951        0.2581629067       -2.0978049334
 H         -5.4138492270        1.0491226228        0.1373902105
 H         -3.9139964264        0.4370471528        2.5442227728
 H         -4.0700645748       -1.9460941322        2.4822828856
 H         -3.2127634149       -4.0459273567        1.5157077715
 H         -1.2917294915       -4.0289009493       -0.0085161871
 H         -0.2126754399       -1.1861963632       -1.7261584570
 C          0.6109327785       -3.1134694852       -1.4378765262
 C          2.0499455461       -3.3415666576       -1.7898223991
 C          1.4318985065       -4.0848219232       -0.6456145753
 H          1.2362595303       -5.1400981233       -0.7690076762
 H          1.7034823800       -3.8032869973        0.3591888733
 H          2.2782916274       -3.8820727103       -2.6962709694
 H          2.7516257470       -2.5514385255       -1.5633521634
 H         -0.1174817590       -3.5406448281       -2.1201571277
