  62
        -98.94481720
 C          1.9257645603        0.2531534177       -0.7613890108
 C          2.9486804702        1.1956497185       -0.4985258035
 C          4.3098911803        0.6553501990       -0.4184078924
 C          4.5182924705       -0.6591809115       -0.6162573390
 C          5.8513742006       -1.3565608712       -0.5874473275
 C          6.3209744610       -1.7454766074        0.8212118735
 C          6.7847361610       -0.5811863450        1.6976021903
 H          7.2854878913       -1.0140944626        2.5659161113
 H          7.5251566908        0.0076538137        1.1552848286
 C          5.6531347410        0.3338702961        2.1860151781
 H          4.6953426810       -0.1786916544        2.0693932097
 H          5.7811669712        0.5336268189        3.2522820276
 C          5.5812283006        1.6864622642        1.4771515946
 H          4.7247419906        2.2369425451        1.8745759333
 H          6.4825603105        2.2632110050        1.6959078828
 C          5.4186230202        1.5928875002       -0.0457419551
 H          6.3549201302        1.2781766091       -0.5057996045
 H          5.1572790600        2.5839666891       -0.4244967477
 H          5.5113193513       -2.2802702462        1.3232684051
 H          7.1561227211       -2.4402244975        0.7056822751
 H          5.7370302107       -2.2692376227       -1.1762624850
 H          6.6047862704       -0.7282578223       -1.0633461293
 O          3.5098002106       -1.5289160224       -0.8916470565
 C          2.1896579705       -1.1033842228       -0.9493835373
 O          1.3683767806       -2.0120510635       -1.1761387647
 O          2.7328833400        2.4262998089       -0.3352367167
 C          0.4883276102        0.7365126272       -0.8362716918
 C         -0.3446111694        0.0247304998        0.2001627603
 C          0.0863404809        0.0403642334        1.5254396702
 C         -0.6211096388       -0.6225426942        2.5078874421
 C         -1.7842020687       -1.3047690652        2.1938117841
 C         -2.2293004790       -1.3187527288        0.8785938143
 C         -1.5141458294       -0.6507390112       -0.1080273276
 H         -1.8771777796       -0.6944119240       -1.1206287474
 N         -3.4017840290       -2.0097467799        0.5300841464
 S         -4.5437737993       -1.2720221327       -0.4427240353
 O         -5.7459962691       -2.0517514024       -0.2461045830
 O         -4.0650057397       -1.1707047262       -1.7968718257
 C         -4.7437007395        0.3483952692        0.2743219205
 C         -5.5094269792        0.4642864921        1.4183745503
 C         -5.6189318493        1.7022510137        2.0298272671
 C         -4.9563945196        2.7965702424        1.4943170241
 C         -4.1923747399        2.6635685095        0.3454259442
 C         -4.0819417798        1.4280905379       -0.2733475925
 H         -3.5006210000        1.2856598156       -1.1692279023
 H         -3.6792023301        3.5159977085       -0.0704410281
 H         -5.0373528397        3.7596944436        1.9730702815
 H         -6.2162174291        1.8102286359        2.9208147169
 H         -6.0165922890       -0.4086199470        1.7963503227
 H         -3.8460934487       -2.4876647279        1.3005018177
 H         -2.3348641585       -1.8318423633        2.9580492657
 H         -0.2680676085       -0.6080941314        3.5279935320
 H          0.9957506308        0.5722873942        1.7700888786
 H          0.5286311101        1.8043135879       -0.5740190346
 C         -0.0420738801        0.6030226834       -2.2473700613
 C         -1.0833250704        1.5532807719       -2.7552473036
 C          0.3236338795        1.6413349508       -3.2638011541
 H          0.5320357493        1.3223618981       -4.2740063133
 H          0.9362001094        2.4665367618       -2.9309061564
 H         -1.8502736205        1.1732238300       -3.4142505724
 H         -1.4180395804        2.3291344136       -2.0830962555
 H         -0.0821131900       -0.4269387475       -2.5850894986
