  62
        -98.93806652
 C          2.0097954478        0.7858339462        0.6067790058
 C          2.0084865296        0.0413209064       -0.5958623258
 C          2.0835126545       -1.4219607483       -0.4559142608
 C          2.0963943999       -1.9678865728        0.7715442418
 C          2.1042898891       -3.4292531192        1.1461822029
 C          3.0413887165       -4.3579794919        0.3603037356
 C          4.3426676027       -3.7068141699       -0.1308073305
 H          4.4767919468       -2.7346481092        0.3464003461
 H          5.1855015611       -4.3346934029        0.1637883659
 C          4.3900946316       -3.5403860615       -1.6516265049
 H          5.4325322512       -3.4326866479       -1.9603659427
 H          4.0035277914       -4.4505639087       -2.1149524634
 C          3.6283358371       -2.3362842991       -2.2046019650
 H          4.1468199178       -1.4128602901       -1.9331627571
 H          3.6396056828       -2.4020544560       -3.2950879323
 C          2.1702649492       -2.2027344463       -1.7351407209
 H          1.6238839555       -1.6161300967       -2.4788278066
 H          1.6906331844       -3.1744632443       -1.6446406658
 H          2.5079113827       -4.7719902981       -0.4941656045
 H          3.2790958101       -5.1950693608        1.0188549907
 H          2.3715352208       -3.4487822889        2.2056471340
 H          1.0776310244       -3.7996948717        1.0666636941
 O          2.0678377164       -1.2119316535        1.9072601876
 C          2.0183977077        0.1699814428        1.8552610652
 O          1.9936301149        0.7281226782        2.9730921699
 H         -0.4972244038        1.2023597911        0.9334984116
 C         -0.5374167545        1.9679666097        0.1708432292
 C          0.6158867888        2.6684626859       -0.1597480076
 C          0.5354390965        3.6602064767       -1.1282664517
 C         -0.6645433172        3.9120856891       -1.7713436881
 C         -1.7981023430        3.1793696429       -1.4731620517
 C         -1.7322149147        2.1994422466       -0.4881686166
 N         -2.8688236567        1.4500935126       -0.1352279857
 S         -2.6472633997       -0.1556533859        0.3403677628
 O         -2.3033195121       -0.1821491029        1.7413085981
 O         -1.7402509378       -0.8325607258       -0.5588392002
 C         -4.3078670387       -0.7714414822        0.1262862472
 C         -4.6276587221       -1.4884406500       -1.0109389224
 C         -5.9308783821       -1.9295733876       -1.1810286882
 C         -6.8873637502       -1.6442303036       -0.2183981272
 C         -6.5511776788       -0.9238386065        0.9183905963
 C         -5.2499072213       -0.4814464626        1.0954347321
 H         -4.9380724278        0.0729619691        1.9652001123
 H         -7.2966083402       -0.7059607412        1.6660239011
 H         -7.9006795656       -1.9878376748       -0.3534734967
 H         -6.1938098885       -2.4925490531       -2.0620235821
 H         -3.8480600931       -1.6907728321       -1.7279157651
 H         -3.6168957076        1.5344294057       -0.8105340008
 H         -2.7259229418        3.3607419851       -1.9939969827
 H         -0.7122391027        4.6790525540       -2.5294818131
 H          1.4148021143        4.2251624336       -1.3907733078
 C          1.8922471579        2.2986009406        0.5577821329
 H          1.8081702188        2.6318347586        1.6032569920
 C          3.1333179677        2.9119444175       -0.0560353673
 C          3.5779828595        4.2843500456        0.3490981924
 C          4.3522814487        3.0826922818        0.7980757253
 H          5.3204890122        2.8960718118        0.3583704757
 H          4.2765148772        2.7788081248        1.8323272261
 H          4.0197611168        4.9251407346       -0.3989384983
 H          2.9830933038        4.8054002783        1.0839337747
 H          3.2809392989        2.6046952996       -1.0849604366
 O          1.9460262610        0.5720584385       -1.7359361546
