  62
        -98.94966063
 C          1.6863675448        1.2185780056        0.3396526148
 C          1.3307706030        0.1575413397       -0.5252454427
 C          1.8876480928       -1.1560258642       -0.1898938659
 C          2.6444697188       -1.2973268626        0.9130435898
 C          3.2527182482       -2.5805866095        1.4105394681
 C          4.5848345332       -2.9454564956        0.7404303849
 C          4.4763070111       -3.4305740581       -0.7057442618
 H          5.4458604388       -3.8550289375       -0.9738672530
 H          3.7413826468       -4.2341358574       -0.7621825383
 C          4.1207455863       -2.3322420410       -1.7173481432
 H          4.7760007830       -2.4132857925       -2.5874390593
 H          4.3019312906       -1.3528493920       -1.2687760527
 C          2.6805677712       -2.3832669770       -2.2272621719
 H          2.5232551828       -3.3063802069       -2.7892454623
 H          2.5285442821       -1.5423364865       -2.9082267240
 C          1.6179034793       -2.2969481716       -1.1235906392
 H          0.6456406000       -2.1208730924       -1.5905475775
 H          1.5680683924       -3.2344805822       -0.5696785263
 H          5.2462090805       -2.0770607007        0.7857007298
 H          5.0398248849       -3.7410159210        1.3351369688
 H          3.4291005738       -2.4450612919        2.4800659060
 H          2.5387514453       -3.3948487301        1.2808755270
 O          2.9371215468       -0.2581008889        1.7404385979
 C          2.4690665464        1.0186543596        1.4746397941
 O          2.8110704982        1.8787505827        2.3139565756
 H         -0.5045006929        1.1891109558        1.6265936353
 C         -1.0508901536        1.7536227640        0.8846256429
 C         -0.3642609483        2.5605077175       -0.0137900858
 C         -1.0972746755        3.2843668157       -0.9462132087
 C         -2.4766168809        3.1757677007       -0.9926131632
 C         -3.1503746501        2.3299376446       -0.1305521173
 C         -2.4263408461        1.6104847777        0.8128550526
 N         -3.0579465781        0.7171636594        1.7045342370
 S         -2.6544126884       -0.9048662087        1.5663833476
 O         -3.4880100666       -1.5801838777        2.5386396039
 O         -1.2323806370       -1.0769894100        1.7147983983
 C         -3.1891533721       -1.3533926866       -0.0761561337
 C         -4.4129999618       -1.9790066805       -0.2225073209
 C         -4.8703441014       -2.2727964895       -1.4965759402
 C         -4.1035682858       -1.9282524220       -2.5997689055
 C         -2.8808158913       -1.2965425348       -2.4354230076
 C         -2.4139008108       -1.0020628357       -1.1629571937
 H         -1.4629228933       -0.5129305102       -1.0165472546
 H         -2.2780837240       -1.0236869945       -3.2869149722
 H         -4.4593591388       -2.1532403470       -3.5929350184
 H         -5.8207311102       -2.7654407817       -1.6249337893
 H         -4.9718279815       -2.2293726606        0.6648452326
 H         -4.0656154495        0.8027865783        1.7167907715
 H         -4.2234225921        2.2236143090       -0.1846550750
 H         -3.0322404476        3.7432618256       -1.7233787096
 H         -0.5867979360        3.9295317364       -1.6424686549
 C          1.1419942319        2.6114044829        0.0799446802
 H          1.4144235789        3.2160046505        0.9578634640
 C          1.7985591374        3.2079991034       -1.1488616560
 C          2.0182167440        4.6869203301       -1.2504620921
 C          3.1819156403        3.7700586609       -1.0261526196
 H          3.8786960744        3.6089414013       -1.8350133221
 H          3.6380099444        3.7474397048       -0.0467030792
 H          1.6922673054        5.2995941267       -0.4235146469
 H          1.9201169058        5.1582175094       -2.2168216747
 H          1.5595022596        2.6602702616       -2.0533239984
 O          0.5797074552        0.3009505527       -1.5261256764
