  62
        -98.93834872
 C         -1.9599466483       -0.9390251037        0.1965929303
 C         -2.3846663028        0.2955369968       -0.3459692429
 C         -3.7439907255        0.7406510130        0.0173077774
 C         -4.4975115339       -0.0201440022        0.8324508575
 C         -5.8845602783        0.1959086646        1.4010210161
 C         -6.8099786195        1.2637696863        0.8237111134
 C         -7.2898968560        0.9920086058       -0.6015145499
 H         -7.8603315282        1.8595049411       -0.9407199987
 H         -7.9680417515        0.1351132818       -0.5823886644
 C         -6.1935079028        0.6889861508       -1.6196691969
 H         -6.6741336203        0.5171633253       -2.5866537848
 H         -5.6837742407       -0.2368257399       -1.3453687570
 C         -5.1528768004        1.7912257094       -1.8078020518
 H         -5.6529129243        2.7329792877       -2.0423138044
 H         -4.5360610503        1.5174778431       -2.6680398696
 C         -4.2072291200        2.0211138771       -0.6157797669
 H         -4.6577224851        2.6753131025        0.1269207784
 H         -3.3084391354        2.5209988721       -0.9888785333
 H         -6.3434178020        2.2423499589        0.8884169191
 H         -7.6924705087        1.2914264857        1.4687861522
 H         -5.7385523589        0.4048046262        2.4666809202
 H         -6.3830433658       -0.7770120584        1.3444204637
 O         -4.0338371359       -1.1965333793        1.3481338701
 C         -2.7738948586       -1.6806444914        1.0535258997
 O         -2.4988620215       -2.7653908720        1.6038404141
 O         -1.6726712617        1.0071374258       -1.1022626578
 C         -0.5763616522       -1.4974929301       -0.0949127586
 C          0.4485061195       -0.6088921647        0.5658655303
 C          0.6541284592       -0.7199012195        1.9382435286
 C          1.5698645371        0.0890194760        2.5845001472
 C          2.2988630206        1.0283205856        1.8755363657
 C          2.0938662751        1.1513612837        0.5085822239
 C          1.1815612354        0.3307013735       -0.1412794184
 H          1.0251687863        0.4465728022       -1.2018011850
 N          2.8503276395        2.0938227789       -0.2186576644
 S          4.5121682162        1.8884069536       -0.1400245683
 O          5.0004079900        2.4075016890        1.1125428797
 O          5.0404902788        2.5091448155       -1.3340103121
 C          4.7301974793        0.1185791014       -0.1943841092
 C          5.0481741140       -0.5702907901        0.9580467894
 C          5.1244022769       -1.9531908404        0.9114103567
 C          4.8771931162       -2.6190038409       -0.2788207948
 C          4.5616379385       -1.9120988214       -1.4291709653
 C          4.4825193804       -0.5299880074       -1.3880323393
 H          4.2454173993        0.0532889846       -2.2633452686
 H          4.3714551342       -2.4336771982       -2.3534596535
 H          4.9311554459       -3.6958355383       -0.3117736170
 H          5.3704071436       -2.5060457792        1.8036860467
 H          5.2320204643       -0.0142401497        1.8624978279
 H          2.5514447842        2.1832114587       -1.1793762673
 H          3.0216669759        1.6664544221        2.3579203721
 H          1.7190369372       -0.0113307232        3.6488301967
 H          0.0781825033       -1.4487636166        2.4918781631
 H         -0.5407941559       -2.4769377705        0.4004113569
 C         -0.3450068362       -1.6921735352       -1.5791404505
 C          0.8410391638       -2.4868823834       -2.0353461697
 C         -0.5401653794       -3.0499854058       -2.1800634964
 H         -0.9695772683       -3.1183360872       -3.1684696846
 H         -0.8394846724       -3.8503548964       -1.5192706195
 H          1.3609230568       -2.1702733038       -2.9265750777
 H          1.4836854855       -2.9010693321       -1.2733182239
 H         -0.6455205315       -0.8394944652       -2.1753148006
