  62
        -98.93797078
 C          1.3005397804        1.5117183001        0.3893022508
 C          1.7063197800        0.4617154498        1.2501080606
 C          2.8788299899       -0.3259473103        0.8383548207
 C          3.4874830203       -0.0371818001       -0.3242437391
 C          4.7360732703       -0.6412694802       -0.9183221990
 C          4.9171558800       -2.1601450102       -0.8173642393
 C          3.6232543899       -2.9761116300       -0.9510901898
 H          2.8063390101       -2.3410028997       -1.3006768799
 H          3.7692923599       -3.7555265298       -1.7016263400
 C          3.2029155194       -3.6538824302        0.3546095099
 H          2.5179132693       -4.4713898400        0.1165269995
 H          4.0852056592       -4.0879250205        0.8310701900
 C          2.4850288594       -2.7446726203        1.3496948000
 H          2.2827982190       -3.3257219605        2.2531544398
 H          1.5165834295       -2.4540744401        0.9301255698
 C          3.2473678595       -1.4664772306        1.7424466005
 H          4.3207315895       -1.6399654408        1.7597332807
 H          2.9258672093       -1.1740381708        2.7457429105
 H          5.3997173497       -2.4102243806        0.1263865407
 H          5.6104350701       -2.4460186702       -1.6104483692
 H          4.7197216506       -0.3463885599       -1.9705794089
 H          5.5988945603       -0.1487177805       -0.4593325986
 O          3.0317250906        0.9457657502       -1.1508190590
 C          1.9059319107        1.7009695203       -0.8529081190
 O          1.5722528511        2.4819773106       -1.7632362889
 O          1.1092556997        0.1914935797        2.3271328804
 C          0.0466324904        2.2792927203        0.7689069407
 C         -1.0004365294        2.0925990607       -0.3016311696
 C         -1.7794092190        3.1095484010       -0.8361473696
 C         -2.7358634889        2.8209312614       -1.7958096999
 C         -2.9531803690        1.5238749616       -2.2244179103
 C         -2.1751882693        0.4992856613       -1.6960669003
 C         -1.2111926495        0.7953589409       -0.7492923900
 H         -0.5898651897       -0.0005604393       -0.3703085201
 N         -2.3431930695       -0.8351337386       -2.0923487407
 S         -2.0570084400       -2.0635167589       -0.9949914910
 O         -0.6411585600       -2.2512098592       -0.8000225807
 O         -2.7704867400       -3.1984469486       -1.5422468614
 C         -2.8508025602       -1.5272350591        0.5107310890
 C         -2.1146722704       -1.2028859496        1.6313305992
 C         -2.7794248606       -0.7466769097        2.7593844892
 C         -4.1595736306       -0.6245598895        2.7494726489
 C         -4.8870016404       -0.9640554190        1.6183703786
 C         -4.2283799302       -1.4176692389        0.4881374687
 H         -4.7592502100       -1.7016321786       -0.4059244015
 H         -5.9611499404       -0.8730336288        1.6139550884
 H         -4.6697782707       -0.2643415496        3.6287800489
 H         -2.2048978208       -0.4832288601        3.6332213594
 H         -1.0395216204       -1.2951802098        1.6186537595
 H         -3.1401362094       -1.0182448783       -2.6828613910
 H         -3.7032793389        1.3054094219       -2.9687350305
 H         -3.3281172186        3.6211495716       -2.2130201498
 H         -1.6268012789        4.1280391009       -0.5191350193
 H         -0.3190523799        1.7485788901        1.6656725304
 C          0.2548687006        3.7250029201        1.1906857611
 C          1.6011867906        4.2264857598        1.6179766415
 C          0.9841501910        4.7265051502        0.3478972615
 H          0.6131497612        5.7410406803        0.3262843617
 H          1.3919320911        4.3861106304       -0.5900634985
 H          1.6573881705        4.8932151195        2.4655481617
 H          2.4357007305        3.5440438096        1.5407894315
 H         -0.5914204895        4.1020840101        1.7570444510
