  62
        -98.93690495
 C         -2.4631597352       -0.9372619171        0.4205262599
 C         -2.4821617062        0.2680036054       -0.3179849302
 C         -3.6134454463        1.1761583895       -0.0530002827
 C         -4.5378355905        0.8222702200        0.8566532867
 C         -5.7873858043        1.5707607683        1.2302959100
 C         -6.9845056355        1.0776679181        0.3997117634
 C         -7.1691213018        1.7804466196       -0.9446669019
 H         -7.5142116497        2.8018381139       -0.7707906197
 H         -7.9623527398        1.2536377824       -1.4801623969
 C         -5.9243379486        1.8298378777       -1.8345192628
 H         -6.2540414799        1.9992593467       -2.8614597096
 H         -5.4179757205        0.8630899411       -1.8133901500
 C         -4.9425491162        2.9425671200       -1.4383820916
 H         -5.4360554296        3.6214897976       -0.7431746829
 H         -4.6909646430        3.5334493101       -2.3215571959
 C         -3.6143759847        2.4611210002       -0.8353815679
 H         -3.2012773073        3.2537004704       -0.2026361480
 H         -2.8889328540        2.2945250756       -1.6379485057
 H         -7.8971347113        1.2182789918        0.9824320763
 H         -6.8614711437        0.0033275803        0.2401200134
 H         -5.6440684801        2.6411991268        1.1172531953
 H         -5.9797139556        1.3500574031        2.2823033680
 O         -4.4763830532       -0.3485571531        1.5502533630
 C         -3.4476855945       -1.2507691148        1.3564857599
 O         -3.5153729882       -2.2748145734        2.0665026657
 O         -1.6027085393        0.5731094218       -1.1655490695
 C         -1.3357384948       -1.9336484771        0.2166546071
 C         -0.0129846794       -1.2688009938        0.5116994961
 C          0.1584161454       -0.6478121618        1.7466694968
 C          1.3466241823       -0.0194273920        2.0628714627
 C          2.3916707616        0.0074403686        1.1550946452
 C          2.2373963647       -0.6193700660       -0.0727412740
 C          1.0428263047       -1.2596294144       -0.3843460656
 H          0.9393151748       -1.7396237052       -1.3448512568
 N          3.2818222633       -0.5849350725       -1.0069854011
 S          4.8648912004       -0.8126426810       -0.5156240539
 O          5.5641176163       -1.2514054680       -1.7035496963
 O          4.9452794898       -1.6842387420        0.6334491201
 C          5.4234445216        0.8223097700       -0.0846503831
 C          6.0152246673        1.0461638266        1.1429345254
 C          6.4531561921        2.3242981354        1.4532387551
 C          6.2938404758        3.3501864227        0.5344684921
 C          5.7002134476        3.1082548050       -0.6954923738
 C          5.2613506954        1.8326740035       -1.0120828872
 H          4.7971533936        1.6052101877       -1.9572076660
 H          5.5773457165        3.9087131685       -1.4072650160
 H          6.6339998235        4.3443132620        0.7782364461
 H          6.9151637457        2.5143011626        2.4087482332
 H          6.1134118137        0.2195637655        1.8287691884
 H          3.0832824963       -1.0584223344       -1.8755486075
 H          3.3188505953        0.5018048461        1.3938949754
 H          1.4614163874        0.4600141589        3.0233314156
 H         -0.6600672190       -0.6629639930        2.4541474925
 H         -1.4912215730       -2.7253853016        0.9639671863
 C         -1.4238005646       -2.5460956436       -1.1654176798
 C         -0.8469653238       -3.9045176019       -1.4254977402
 C         -2.3331535985       -3.7165861584       -1.3815342811
 H         -2.8885952000       -3.7750167710       -2.3055784318
 H         -2.8731719831       -4.0901192013       -0.5235535495
 H         -0.3843753137       -4.0963492267       -2.3822364392
 H         -0.3750823636       -4.4140652768       -0.5987689601
 H         -1.3689471402       -1.8051256823       -1.9548452800
