  62
        -98.94228905
 C          1.1414494500        1.2281686888        0.6830125519
 C          1.8093873101        0.9442475993       -0.5355340881
 C          2.6115295700       -0.2927432607       -0.5510624685
 C          2.6363474698       -1.0882870012        0.5316466611
 C          3.4364070697       -2.3517605414        0.6561641606
 C          4.8282825796       -2.0748817617        1.2417179610
 C          5.5686782898       -0.9250473915        0.5588340317
 H          5.0346801498        0.0079527785        0.7527611620
 H          6.5481447997       -0.8404844618        1.0343845019
 C          5.7494287400       -1.0973073008       -0.9557354184
 H          6.7759333401       -0.8334188507       -1.2188951281
 H          5.6028355000       -2.1425245206       -1.2304952589
 C          4.8318574203       -0.2185424503       -1.8082298981
 H          5.1865363104       -0.2577285998       -2.8416921281
 H          4.9065774303        0.8203087695       -1.4765964476
 C          3.3498126502       -0.6144212502       -1.8192571086
 H          2.8536629504       -0.0396190198       -2.6073038984
 H          3.2499050802       -1.6744731601       -2.0635284391
 H          4.7153918594       -1.8283363822        2.2998622611
 H          5.4218627295       -2.9876948818        1.1662901007
 H          2.9007159095       -3.0333254116        1.3193154302
 H          3.5263432798       -2.8144198209       -0.3250100296
 O          1.9575203896       -0.8010742217        1.6718023011
 C          1.2028581697        0.3570829983        1.7736102415
 O          0.6385382095        0.4994254178        2.8766809715
 H         -0.7339868298        0.9259726198       -1.1454548185
 C         -1.5109327598        1.2939906096       -0.4928195985
 C         -1.1896664300        2.0931155991        0.5953523719
 C         -2.2176470601        2.5547967988        1.4097949820
 C         -3.5343920900        2.2326243590        1.1341432216
 C         -3.8478566399        1.4178770095        0.0611012011
 C         -2.8268093098        0.9386236098       -0.7505792689
 N         -3.0998329597        0.0679465404       -1.8250715094
 S         -2.3108985798       -1.4125147197       -1.8033895999
 O         -0.9216763598       -1.2483959297       -2.1406950396
 O         -3.0897278097       -2.2543443792       -2.6859661305
 C         -2.4882976702       -1.9552751105       -0.1150423002
 C         -3.6691570803       -2.5572212706        0.2742463193
 C         -3.8467706005       -2.8788420912        1.6099901091
 C         -2.8549151207       -2.5773441917        2.5318319594
 C         -1.6749323706       -1.9733035616        2.1258150599
 C         -1.4879501003       -1.6626212910        0.7885726901
 H         -0.5813906002       -1.1938110109        0.4384155605
 H         -0.9028208707       -1.7173152520        2.8351728202
 H         -2.9989939009       -2.8134000022        3.5743100693
 H         -4.7597097706       -3.3540378913        1.9309946387
 H         -4.4145253602       -2.7729637402       -0.4741836709
 H         -4.0870659697       -0.0782972295       -1.9866869796
 H         -4.8723564999        1.1485005097       -0.1457012892
 H         -4.3228383601        2.6035261488        1.7705707816
 H         -1.9766450302        3.1580211283        2.2724858823
 C          0.2483466900        2.4407707188        0.8919654623
 H          0.3107399098        2.6701418483        1.9684365925
 C          0.7161858403        3.6780503591        0.1389372730
 C          0.0376417205        4.1919841098       -1.0912474269
 C         -0.0814658297        4.9473610692        0.1961799035
 H          0.4481419004        5.8824529291        0.2978369740
 H         -1.0336369997        4.9195943890        0.7032351333
 H          0.6610717607        4.5875610201       -1.8783358366
 H         -0.8253357195        3.6556610200       -1.4550592373
 H          1.7958520903        3.7821404090        0.1684183633
 O          1.7607841104        1.6685694698       -1.5614890878
