  62
        -98.93745472
 C          1.0951093112        1.5153977003       -0.1113350662
 C          1.3507338461        0.1663371581       -0.4606394315
 C          2.6019194502       -0.4121408376        0.0638816094
 C          3.3938363463        0.3270684703        0.8593402719
 C          4.7203651070       -0.1017473043        1.4199175422
 C          5.8083316525       -0.0211193792        0.3301187566
 C          6.4002226984       -1.3724384814       -0.0707872064
 H          7.0868352162       -1.7051629672        0.7104793673
 H          6.9852757691       -1.2169855035       -0.9796909070
 C          5.3890023035       -2.4965969792       -0.3149933651
 H          5.0635021056       -2.9125140843        0.6398651330
 H          5.9207601634       -3.2951764332       -0.8368330273
 C          4.1474029453       -2.1154195433       -1.1313573050
 H          3.9123703054       -2.9472418592       -1.7985395754
 H          4.3523722978       -1.2497116751       -1.7613297116
 C          2.8850782373       -1.8457684028       -0.2912413496
 H          2.9128539712       -2.4474249260        0.6222696330
 H          2.0090342285       -2.1684406069       -0.8620253176
 H          6.6215132695        0.6191986003        0.6751721936
 H          5.3769230668        0.4639446811       -0.5478494898
 H          4.6423287296       -1.1137654744        1.8116349614
 H          4.9564128321        0.5728416664        2.2433573697
 O          3.1048351683        1.6119675861        1.1931002189
 C          1.9610932840        2.2310191126        0.7197453742
 O          1.8279723720        3.4128535400        1.0986432577
 O          0.5922003752       -0.5419053726       -1.1724744085
 C         -0.1381662968        2.2834449066       -0.5558561542
 C         -1.3000271134        2.0781012679        0.3875396581
 C         -2.1056845971        3.1471620336        0.7631790890
 C         -3.1964759799        2.9486601372        1.5899251660
 C         -3.5140586891        1.6812056974        2.0434585823
 C         -2.7114439156        0.6058067255        1.6771411822
 C         -1.6094951704        0.8113464567        0.8587157195
 H         -0.9865858912       -0.0281741544        0.5961290869
 N         -3.0071968232       -0.6857243283        2.1229331880
 S         -2.4486736021       -2.0467611474        1.3409702344
 O         -3.3527023189       -3.0910439396        1.7831961296
 O         -1.0580186163       -2.2654514051        1.6535374330
 C         -2.6731924960       -1.7770526740       -0.4085196021
 C         -3.7608674282       -1.0544715203       -0.8577318164
 C         -3.9207842583       -0.8649209590       -2.2204554266
 C         -3.0018045043       -1.4053421653       -3.1067533800
 C         -1.9256312857       -2.1425714640       -2.6403198176
 C         -1.7572531312       -2.3308753319       -1.2780622400
 H         -0.9185850930       -2.8745726407       -0.8750965438
 H         -1.2061325721       -2.5589451539       -3.3267170879
 H         -3.1232294380       -1.2490996050       -4.1672988457
 H         -4.7574776041       -0.2913230296       -2.5855824966
 H         -4.4620352226       -0.6401293966       -0.1519170754
 H         -3.9048242698       -0.8155388785        2.5634952812
 H         -4.3680961665        1.5222462909        2.6835863472
 H         -3.8104351507        3.7873927375        1.8802295947
 H         -1.8629885480        4.1398325994        0.4151998815
 H          0.1407861700        3.3457402180       -0.5150218528
 C         -0.5902465995        1.9579706033       -1.9679657957
 C         -1.3376738975        2.9889559312       -2.7563820598
 C          0.0700892546        2.6347732568       -3.1293273114
 H          0.2431146917        2.0607847464       -4.0268393327
 H          0.8509523399        3.3495019392       -2.9118980323
 H         -2.1377327682        2.6594179413       -3.4005603494
 H         -1.5098994645        3.9496381123       -2.2957792623
 H         -0.8776695176        0.9220566152       -2.0923714516
