  62
        -98.93738230
 C          2.1943398036        1.2790330683       -0.1264653645
 C          2.6259031426        0.1579060811       -0.8730183946
 C          4.0108858967       -0.2858297910       -0.6355664140
 C          4.7817522193        0.3866395630        0.2360467024
 C          6.2244628421        0.1358727087        0.5969808111
 C          6.6506593205       -1.3200087313        0.8341446544
 C          5.5626361507       -2.2290417075        1.4242875216
 H          5.9705066293       -2.7534582622        2.2904840393
 H          4.7205614872       -1.6292854016        1.7739298482
 C          5.0612619691       -3.2819768846        0.4327571198
 H          4.5919678462       -4.0952695435        0.9916185711
 H          5.9201965026       -3.7020788263       -0.0952893769
 C          4.0381497453       -2.7886860613       -0.5900387140
 H          3.8587636218       -3.5974375675       -1.3027556390
 H          3.0849586644       -2.5847236802       -0.0938525793
 C          4.4367818330       -1.5245849761       -1.3692127914
 H          5.5010964436       -1.5172633503       -1.5916510227
 H          3.8825673413       -1.5235639483       -2.3117773832
 H          7.0040583776       -1.7531257668       -0.1006055496
 H          7.5069674462       -1.2918205294        1.5100776553
 H          6.3954812969        0.7197348545        1.5045005014
 H          6.8518986556        0.5686910686       -0.1874976032
 O          4.3268701440        1.4728913541        0.9229687126
 C          3.0309137246        1.9345886099        0.7752900662
 O          2.7480711340        2.9172804680        1.4900714214
 O          1.8988502466       -0.4418207453       -1.7069583600
 C          0.7745265892        1.7964054503       -0.2791255276
 C         -0.1949156668        0.6946752905        0.0729750938
 C         -0.1201780218        0.1260772126        1.3423135690
 C         -0.9678095061       -0.9007720465        1.7098638877
 C         -1.9121254537       -1.3835466377        0.8202800685
 C         -2.0026226966       -0.8162450535       -0.4430188323
 C         -1.1558982560        0.2244260820       -0.8067502095
 H         -1.2371543853        0.6480632928       -1.7951382171
 N         -2.9645540644       -1.2938625210       -1.3465922961
 S         -4.5115463910       -1.5838927583       -0.7846006069
 O         -4.5595506997       -2.8586408890       -0.1129003142
 O         -5.3657394373       -1.4482283035       -1.9433675486
 C         -4.8286980448       -0.2726199002        0.3836000376
 C         -5.0536080883       -0.5705330902        1.7118563969
 C         -5.2619210346        0.4676123329        2.6059770333
 C         -5.2381349922        1.7791752634        2.1586357940
 C         -5.0144819097        2.0623908268        0.8197071193
 C         -4.8066634756        1.0286400206       -0.0784207207
 H         -4.6371197717        1.2150446437       -1.1266025522
 H         -4.9985020966        3.0836394379        0.4742800416
 H         -5.3954732226        2.5864437088        2.8564479261
 H         -5.4379862445        0.2503491413        3.6471941402
 H         -5.0626621432       -1.6039647601        2.0179440456
 H         -2.9687077748       -0.8223523615       -2.2384866870
 H         -2.5673265809       -2.1985116210        1.0815285561
 H         -0.8912302435       -1.3349548904        2.6952530667
 H          0.6231953602        0.4984306045        2.0345745239
 H          0.6640099992        2.5983661024        0.4644441271
 C          0.5707119854        2.3818881972       -1.6603113709
 C         -0.4990836242        3.4063898516       -1.8882817132
 C          0.9434980890        3.8123259679       -1.9020963895
 H          1.3985333481        4.0737245635       -2.8457578535
 H          1.3286187928        4.3733155553       -1.0630075257
 H         -1.0349237465        3.3957312132       -2.8255912111
 H         -1.0977481455        3.6986718794       -1.0390884821
 H          0.7816181877        1.6724023070       -2.4522639849
