  62
        -98.94655157
 C         -0.3884220645       -1.9037212058        0.6391379049
 C         -1.1090606774       -2.0578733923       -0.5697148756
 C         -2.4509990354       -1.4648206082       -0.5883947383
 C         -2.9216547066       -0.8361275373        0.5038926520
 C         -4.2871099938       -0.2200161604        0.6455795807
 C         -4.3904004597        1.2060081568        0.0890768865
 C         -4.3609097617        1.3205671213       -1.4349359160
 H         -5.1068018390        0.6524225331       -1.8664570928
 H         -4.6556409807        2.3413356471       -1.6848676458
 C         -2.9879590960        1.0359832375       -2.0600603671
 H         -2.2151721866        1.0942792110       -1.2893058535
 H         -2.7566613833        1.8043759232       -2.8006894190
 C         -2.8860716976       -0.3166808969       -2.7654532151
 H         -1.8617026296       -0.4402991119       -3.1267467276
 H         -3.5529707502       -0.3306165212       -3.6305540783
 C         -3.2202824696       -1.5193458586       -1.8732039553
 H         -4.2916921404       -1.5596216864       -1.6786688952
 H         -2.9241662131       -2.4298435667       -2.3998592328
 H         -3.5732963111        1.7957606860        0.5067024641
 H         -5.3324123068        1.6275738734        0.4467659383
 H         -4.5039639695       -0.1879654863        1.7153900954
 H         -5.0262355387       -0.8590161877        0.1613298903
 O         -2.1948125280       -0.7080851810        1.6466615004
 C         -0.9062426638       -1.2114974030        1.7327233900
 O         -0.3363378785       -0.9844493131        2.8199531943
 O         -0.6609822926       -2.6614038253       -1.5787186487
 C          1.0293124971       -2.4369008687        0.7377136278
 C          1.8751750502       -1.7671617313       -0.3186696199
 C          2.6707682318       -2.4532124679       -1.2257730844
 C          3.3995267013       -1.7603592550       -2.1774106265
 C          3.3721234092       -0.3790456274       -2.2264681034
 C          2.5895788287        0.3181086584       -1.3124087301
 C          1.8424139558       -0.3791610653       -0.3789965035
 H          1.2263724575        0.1651544156        0.3226719528
 N          2.5332271834        1.7206508245       -1.3220111811
 S          2.5570894284        2.5484277524        0.1355025252
 O          3.1280524138        3.8377208045       -0.1957222060
 O          3.2432081132        1.7947170576        1.1581109928
 C          0.8506313991        2.8025670749        0.5728356758
 C          0.0746885508        3.5779629547       -0.2672289398
 C         -1.2257389756        3.8742949141        0.1053556385
 C         -1.7257567130        3.3958644477        1.3080271806
 C         -0.9432053399        2.5987383782        2.1287864115
 C          0.3597358367        2.3010875747        1.7613670221
 H          0.9939036065        1.6858569230        2.3814756398
 H         -1.3343384065        2.2000272541        3.0515729449
 H         -2.7277418539        3.6540429684        1.6144289841
 H         -1.8442743934        4.4812689355       -0.5358292077
 H          0.5067168406        3.9471008991       -1.1823811453
 H          3.1325939508        2.1617919287       -2.0047155808
 H          3.9473022941        0.1589273619       -2.9648643752
 H          4.0045608970       -2.3048771370       -2.8865611846
 H          2.7126600401       -3.5294675777       -1.1966374328
 H          1.4098611083       -2.1240897550        1.7215867970
 C          1.0400278956       -3.9488684947        0.6670842198
 C          2.1543883026       -4.7229896428        1.3027270855
 C          0.7881580850       -4.7331696082        1.9182284040
 H          0.1980103910       -5.6348145319        1.8523836693
 H          0.6318790057       -4.1750956329        2.8302471290
 H          2.5023216997       -5.6218151425        0.8164040549
 H          2.9309073904       -4.1625442610        1.8015972006
 H          0.6126412381       -4.3262624218       -0.2545063452
