  62
        -98.93763058
 C         -1.7083189487       -0.3421097977        0.5036860453
 C         -2.9199474670       -0.2996781436        1.2279216012
 C         -4.1647639677       -0.4933786746        0.4586882263
 C         -4.0777958473       -0.6989540828       -0.8689960660
 C         -5.2000465712       -0.8757436264       -1.8568854333
 C         -5.8969259800        0.4502822245       -2.2033978354
 C         -6.1827786818        1.3584524626       -1.0101499827
 H         -5.2461072851        1.5780268459       -0.4943863607
 H         -6.5680971705        2.3052554012       -1.3979729825
 C         -7.1993646689        0.8167154989       -0.0080040839
 H         -7.3645100981        1.5964216382        0.7400925532
 H         -8.1485670761        0.6423373446       -0.5196620448
 C         -6.8002427053       -0.4662942792        0.7237265721
 H         -6.9229954325       -1.3361231344        0.0841141551
 H         -7.4962157467       -0.5944371060        1.5580840842
 C         -5.3991130983       -0.4482544489        1.3271132749
 H         -5.3062009144       -1.2975882151        2.0149940736
 H         -5.2916919594        0.4427637092        1.9564223689
 H         -6.8291879726        0.2249914295       -2.7239679550
 H         -5.2504857137        1.0007223536       -2.8912526344
 H         -4.7548041868       -1.2820180398       -2.7676245357
 H         -5.9141478121       -1.6038571472       -1.4840111766
 O         -2.8831538554       -0.7306848927       -1.5261727350
 C         -1.6770401553       -0.5547836400       -0.8738967221
 O         -0.6757453850       -0.6108255360       -1.6118141466
 O         -2.9692315878       -0.0969650724        2.4723017391
 C         -0.3974220618       -0.1447133114        1.2419333596
 C          0.3408004849        1.0421770877        0.6752203075
 C         -0.3405626933        2.2471625088        0.5188057519
 C          0.2931250624        3.3529590576       -0.0119441277
 C          1.6229238839        3.2850894348       -0.3901702865
 C          2.3152244594        2.0915583364       -0.2301527050
 C          1.6738804120        0.9812658125        0.3036888569
 H          2.2283765154        0.0668378014        0.4255345684
 N          3.6514958687        1.9839648520       -0.6336769991
 S          4.7275392962        0.9893927323        0.1628413148
 O          4.5151758722        1.0049983936        1.5915368216
 O          6.0291710508        1.4385397547       -0.2843429323
 C          4.4225537928       -0.6401159098       -0.4862654966
 C          4.1009227392       -0.7870530394       -1.8206626209
 C          3.8917515419       -2.0620933032       -2.3209916942
 C          4.0135391164       -3.1625277367       -1.4864148254
 C          4.3449510864       -2.9988281267       -0.1503844992
 C          4.5532170825       -1.7260280793        0.3567990160
 H          4.8025555129       -1.5506987186        1.3915557151
 H          4.4390649212       -3.8564846681        0.4968902649
 H          3.8468590707       -4.1532974280       -1.8789938694
 H          3.6287143140       -2.1927059355       -3.3583281881
 H          4.0051501778        0.0880718453       -2.4413448137
 H          4.0792478156        2.8355668563       -0.9645773364
 H          2.1185227007        4.1472019672       -0.8099235664
 H         -0.2499736604        4.2785544399       -0.1312785718
 H         -1.3795331219        2.3012546776        0.8147993780
 H         -0.6768423407        0.0899107290        2.2801384220
 C          0.4086495134       -1.4263770120        1.2318024760
 C          1.3803991156       -1.7173630469        2.3347368468
 C          0.0972236875       -2.4857336489        2.2444764805
 H          0.1355182820       -3.5198553542        1.9372724338
 H         -0.6813077216       -2.2714277472        2.9620971611
 H          2.3002592278       -2.2246584480        2.0869437099
 H          1.4836002433       -0.9817646329        3.1182991674
 H          0.6612986692       -1.7515270626        0.2284043489
