  62
        -98.94434215
 C         -1.6097576563       -1.3824792420        0.5344508604
 C         -1.6117521236       -0.0763632141        1.0879605533
 C         -2.7461898719        0.7771020211        0.7206889960
 C         -3.7087344785        0.2951089560       -0.0863493135
 C         -4.9484703073        1.0280294707       -0.5225645662
 C         -4.7422825140        1.9313123827       -1.7460330615
 C         -3.9373153186        3.2044027910       -1.4832618179
 H         -4.3708407299        3.7379839564       -0.6369205647
 H         -4.0499094568        3.8415511264       -2.3626782873
 C         -2.4415163304        2.9654608789       -1.2333878838
 H         -1.8565866441        3.6784847949       -1.8182267073
 H         -2.1679673819        1.9671103233       -1.5832606028
 C         -2.0085856615        3.1147897205        0.2250041886
 H         -2.1522683906        4.1491449609        0.5440114824
 H         -0.9426968992        2.8837054316        0.2882327701
 C         -2.7481348488        2.1951594035        1.2054280209
 H         -3.7690843511        2.5449286100        1.3568853335
 H         -2.2214007612        2.2200360135        2.1621647189
 H         -5.7315899505        2.2194355628       -2.1091514407
 H         -4.2567220297        1.3482286521       -2.5321035831
 H         -5.3351388799        1.6198534803        0.3074824794
 H         -5.6862435541        0.2646476722       -0.7790485081
 O         -3.6697210129       -0.9624904245       -0.5988930974
 C         -2.6063442927       -1.8173420787       -0.3394683164
 O         -2.6869271401       -2.9104529176       -0.9313075618
 O         -0.7118951944        0.3516693321        1.8580466776
 C         -0.4282568175       -2.2816972391        0.8613197480
 C          0.5037752727       -2.2762363555       -0.3255208967
 C          0.5061993171       -3.2713544994       -1.2950004387
 C          1.3542522152       -3.1786524002       -2.3845606404
 C          2.2255816259       -2.1124608240       -2.5163777289
 C          2.2299222900       -1.1109982365       -1.5514943975
 C          1.3628267055       -1.1938457514       -0.4739887435
 H          1.3537564305       -0.4071633995        0.2659278581
 N          3.0954171093       -0.0111435178       -1.6531583886
 S          3.8903099844        0.5361020537       -0.2809628427
 O          5.0865107785        1.1732477459       -0.7925482180
 O          4.0987586110       -0.5333118417        0.6671188226
 C          2.8344307646        1.7926006726        0.4038903774
 C          2.5133022326        2.8750472022       -0.3918135868
 C          1.7335712110        3.8873938272        0.1415109355
 C          1.2910437002        3.8006931729        1.4538163008
 C          1.6211116177        2.7074352892        2.2382916076
 C          2.4030346706        1.6926434592        1.7105475301
 H          2.6773479904        0.8235904606        2.2874280376
 H          1.2661333744        2.6326394392        3.2531778042
 H          0.6812711246        4.5888123017        1.8669682574
 H          1.4689852028        4.7388131075       -0.4648915612
 H          2.8817491970        2.9075309838       -1.4037656124
 H          3.7165905697       -0.0374076923       -2.4489961351
 H          2.8964340356       -2.0511416367       -3.3602410947
 H          1.3443372448       -3.9537540554       -3.1361736653
 H         -0.1708813510       -4.1048153342       -1.2052169131
 H          0.0927244906       -1.7830031846        1.6906550678
 C         -0.8367559636       -3.6668561375        1.3125034064
 C          0.1836010045       -4.5427027529        1.9742054899
 C         -0.9374793185       -3.9584350595        2.7785357608
 H         -1.7242606289       -4.6145189659        3.1195217730
 H         -0.7084300187       -3.1575192062        3.4663210705
 H          0.1698255505       -5.6013149413        1.7646799233
 H          1.1743447678       -4.1349213196        2.1111926984
 H         -1.5654407608       -4.1372957433        0.6648333753
