  62
        -98.94090299
 C         -2.6630670843       -1.1295583021       -0.4024664982
 C         -2.1427205270        0.0265356570       -1.0334304146
 C         -2.9951162184        1.2240011211       -0.9801383118
 C         -4.1893338808        1.1611255365       -0.3644849656
 C         -5.1282432145        2.3184312164       -0.1886465524
 C         -4.8631257469        3.0510012566        1.1340587925
 C         -3.3912445837        3.3923944969        1.3681930399
 H         -3.3295036701        3.9344127899        2.3144859709
 H         -2.8227045661        2.4673913176        1.4936952852
 C         -2.7492323483        4.2329298638        0.2556709558
 H         -3.5261984675        4.7066797157       -0.3455749651
 H         -2.1619360908        5.0304771323        0.7156027052
 C         -1.8019880070        3.4563402847       -0.6610770170
 H         -1.0749671825        2.9065622868       -0.0563552761
 H         -1.2445524697        4.1796928553       -1.2624702290
 C         -2.4704100582        2.4730512217       -1.6305272038
 H         -3.2624936831        2.9827566162       -2.1827319367
 H         -1.7100706606        2.1423802273       -2.3439931493
 H         -5.4564913081        3.9669960268        1.1467402912
 H         -5.2007819814        2.4154602714        1.9559291882
 H         -5.0129550563        3.0042320112       -1.0255532130
 H         -6.1496489659        1.9344332474       -0.1821197146
 O         -4.6606784607        0.0300218944        0.2193839662
 C         -3.9060248322       -1.1295710954        0.2354965919
 O         -4.4447228296       -2.0831135661        0.8323891207
 H          0.7104735223       -1.7339655134       -0.9977123451
 C          0.5611434572       -1.8097303832        0.0674591805
 C         -0.6786104223       -2.1791227944        0.5636294399
 C         -0.8546873240       -2.2381926595        1.9434639061
 C          0.1858885876       -1.9346754731        2.8011453580
 C          1.4204744552       -1.5558504583        2.3024070638
 C          1.6018282205       -1.4842563572        0.9283483687
 N          2.8505538005       -1.0899747187        0.4066388807
 S          3.5513538163        0.2798508682        1.1081911679
 O          4.2265707282       -0.1267919733        2.3162661963
 O          2.5670068762        1.3280277976        1.2616751349
 C          4.7513966532        0.7199407323       -0.1329430484
 C          4.3853925028        1.5955735779       -1.1376253340
 C          5.3111383812        1.9129448749       -2.1191327464
 C          6.5779108765        1.3494632243       -2.0812156684
 C          6.9294619657        0.4710146430       -1.0671630865
 C          6.0092457801        0.1502517558       -0.0818368882
 H          6.2383905047       -0.5201816878        0.7298247019
 H          7.9157306892        0.0366574587       -1.0410100201
 H          7.2957284393        1.5990361834       -2.8465692958
 H          5.0405271746        2.5966499734       -2.9077036928
 H          3.3916063159        2.0152444424       -1.1244474595
 H          2.8041139377       -0.9761652053       -0.5977944198
 H          2.2349577181       -1.2944621492        2.9587179082
 H          0.0347382372       -1.9847822222        3.8692978517
 H         -1.8266894567       -2.5074908908        2.3341692705
 C         -1.8643422058       -2.4229704735       -0.3379617207
 H         -2.5186457699       -3.1564015219        0.1512572043
 C         -1.5002936680       -2.9375644386       -1.7145350316
 C         -1.0225609653       -4.3497986405       -1.8639541393
 C         -2.3792157848       -3.9601149083       -2.3669506518
 H         -2.5367032058       -3.8975576544       -3.4332703127
 H         -3.2461406437       -4.2972218217       -1.8175584477
 H         -0.9672189377       -4.9522904522       -0.9698779838
 H         -0.2475947177       -4.5597881924       -2.5850278025
 H         -1.0648561953       -2.1822129749       -2.3561284857
 O         -1.0306782506        0.0694114952       -1.6229194828
