  62
        -98.93421892
 C         -2.5978806648       -1.3560126428        0.2489411894
 C         -2.4395690344       -0.2241723137       -0.5887245798
 C         -3.5711203687        0.7232781615       -0.6245868757
 C         -4.6732616957        0.4768077810        0.1018413765
 C         -5.9489931483        1.2775324090        0.1742142398
 C         -5.8195880242        2.8030692563        0.2939125036
 C         -4.5771458494        3.2949464343        1.0507464264
 H         -4.8872154566        4.0155727031        1.8097748981
 H         -4.0978327394        2.4625998301        1.5689710276
 C         -3.5567176486        3.9842406574        0.1411741308
 H         -2.9097063133        4.6165470303        0.7539613460
 H         -4.0911147237        4.6382552295       -0.5515007377
 C         -2.6473595747        3.0499437942       -0.6567122061
 H         -1.9365790633        2.5579836254        0.0139491530
 H         -2.0580941190        3.6603266050       -1.3458654431
 C         -3.3665517870        1.9539512754       -1.4601022610
 H         -4.3027796772        2.3197779642       -1.8751190070
 H         -2.7105770395        1.6586173379       -2.2837118986
 H         -6.7179801662        3.1567109659        0.8024168303
 H         -5.8262837708        3.2484330949       -0.7000523842
 H         -6.4799899277        0.8856678398        1.0449020129
 H         -6.5519722574        1.0379049351       -0.7063134400
 O         -4.7843434996       -0.6263592443        0.8940433776
 C         -3.7565282850       -1.5446192031        1.0075438544
 O         -3.9916855935       -2.4743932486        1.8047060253
 O         -1.4224441669       -0.0012955802       -1.2950468130
 C         -1.5038642898       -2.3952127929        0.4382440363
 C         -0.1951424934       -1.7011601425        0.7194648859
 C          0.0316360321       -1.1658696648        1.9838165946
 C          1.2011150644       -0.4832803725        2.2605646974
 C          2.1633849810       -0.3117927286        1.2805209280
 C          1.9360493368       -0.8231701168        0.0102825768
 C          0.7704836663       -1.5298086507       -0.2583507099
 H          0.5957357225       -1.9102696260       -1.2525574546
 N          2.8996720780       -0.6516008155       -0.9955536563
 S          3.7067760879        0.8109196470       -1.1316383066
 O          2.9070196112        1.9272911911       -0.6849714999
 O          4.1663130790        0.8564252857       -2.5031231215
 C          5.1174319671        0.6044549633       -0.0617313751
 C          5.8822968597       -0.5371556192       -0.2012560710
 C          6.9896992035       -0.7051716586        0.6144468837
 C          7.3148451892        0.2670448252        1.5486453031
 C          6.5396532587        1.4094510105        1.6741156499
 C          5.4297385209        1.5827406789        0.8617110510
 H          4.7946739664        2.4520258348        0.9285872209
 H          6.7936542568        2.1647901223        2.4004250289
 H          8.1772341728        0.1337643095        2.1825776660
 H          7.5946843031       -1.5925288821        0.5199231747
 H          5.5979347072       -1.2676294801       -0.9399477403
 H          2.6019879900       -0.9849662536       -1.9010070877
 H          3.0699585376        0.2336604969        1.4854554976
 H          1.3653087842       -0.0758362603        3.2467223359
 H         -0.7280915536       -1.2834976561        2.7448495454
 H         -1.7959777988       -2.9471016838        1.3459261236
 C         -1.4042058094       -3.4246800309       -0.6776860361
 C         -2.6460822080       -3.9852774160       -1.3024148759
 C         -1.7258185707       -3.1212596701       -2.1087365627
 H         -1.1262542492       -3.5909233388       -2.8754316715
 H         -2.0415274719       -2.1204174110       -2.3568607086
 H         -2.6840720892       -5.0423685083       -1.5178291072
 H         -3.5912151385       -3.5689183284       -0.9848598036
 H         -0.5942118200       -4.1262803897       -0.5015650080
