  62
        -98.93845291
 C         -1.4243024442       -1.6441226960       -0.0653301965
 C         -1.4513673638       -0.2493594783        0.1738187865
 C         -2.7727221219        0.3230984088        0.4716028237
 C         -3.8492136330       -0.4807799529        0.5302304581
 C         -5.2605860827       -0.0707621152        0.8591890936
 C         -5.9434104795        0.8746046568       -0.1482135621
 C         -5.8225676694        2.3636440267        0.1994881654
 H         -6.7756209718        2.8519968731       -0.0142612148
 H         -5.6555956017        2.4609274439        1.2728710304
 C         -4.7425974081        3.1413290808       -0.5587082987
 H         -5.1009904792        3.3554506513       -1.5682485036
 H         -4.6030587406        4.0978292192       -0.0503878921
 C         -3.3864972318        2.4471676868       -0.6903994776
 H         -2.6649622917        3.1782403471       -1.0596848160
 H         -3.4474969475        1.6637409322       -1.4494977188
 C         -2.8580470904        1.8149976622        0.6115726863
 H         -1.8416012277        2.1614923955        0.8093820521
 H         -3.4889812094        2.0875338047        1.4560095674
 H         -5.5537630552        0.6827262771       -1.1476630569
 H         -7.0026189179        0.6124475588       -0.1595543747
 H         -5.8285921716       -1.0015888477        0.9159008461
 H         -5.2716214078        0.3871268229        1.8508852308
 O         -3.7705825272       -1.8259502067        0.3275135537
 C         -2.5674132007       -2.4372226240        0.0131988199
 O         -2.6442166458       -3.6710694358       -0.1589255455
 H          2.3737815820       -1.1130914757       -0.7236961990
 C          2.1252588658       -1.3460659604        0.2970870316
 C          0.9290790366       -1.9693985360        0.6116732982
 C          0.6668526451       -2.2775136082        1.9446151812
 C          1.5720909406       -1.9527643305        2.9355849092
 C          2.7519348099       -1.3003399643        2.6214712386
 C          3.0262089444       -0.9967198162        1.2939658517
 N          4.2175999252       -0.3485459279        0.9423319607
 S          4.2838429708        0.6998733743       -0.3544840522
 O          4.2865998949       -0.0409691219       -1.5918311676
 O          5.4716022955        1.4896504742       -0.1001222927
 C          2.8479256261        1.7530323766       -0.2638569911
 C          2.6156134675        2.4507580496        0.9037715320
 C          1.5302894530        3.3077150479        0.9660634327
 C          0.7032934973        3.4559439746       -0.1357081698
 C          0.9497104031        2.7485356048       -1.3000580142
 C          2.0316787237        1.8871842591       -1.3664359241
 H          2.2546172068        1.3126384068       -2.2519691247
 H          0.2971626186        2.8554288893       -2.1522457179
 H         -0.1431676979        4.1234173730       -0.0840667597
 H          1.3283103837        3.8532296336        1.8742948379
 H          3.2805295022        2.3215188010        1.7426539230
 H          4.7783914209       -0.0266568909        1.7167825312
 H          3.4542169838       -1.0316060767        3.3957344629
 H          1.3541167017       -2.1979729644        3.9642540054
 H         -0.2648452285       -2.7690594911        2.1915585795
 C         -0.1091607322       -2.3105585434       -0.4280420357
 H         -0.2909912875       -3.3944799380       -0.3998717411
 C          0.2939580587       -1.9171580645       -1.8338835739
 C          1.2043169041       -2.7997579977       -2.6318876272
 C         -0.2451812194       -2.6908714861       -2.9973862307
 H         -0.5128794037       -2.1538605787       -3.8950932324
 H         -0.8937149351       -3.5271109147       -2.7795490791
 H          1.5431602297       -3.7144881524       -2.1692688817
 H          1.9388562739       -2.3374771594       -3.2745218908
 H          0.3927092095       -0.8436187233       -1.9525199356
 O         -0.4292683188        0.4807530401        0.1455315697
