  62
        -98.93833650
 C         -0.8358808627       -1.2967694473        0.6640488847
 C         -1.1431918112       -0.6861055217       -0.5743004798
 C         -2.0983060192        0.4395673510       -0.5306167605
 C         -2.5099181904        0.9026578992        0.6612377848
 C         -3.5045066411        1.9965455004        0.9423053624
 C         -4.9223665056        1.4212523797        1.1034897767
 C         -5.7156552457        1.2889007923       -0.1956133575
 H         -6.6456426255        0.7679223892        0.0433997605
 H         -5.9817178471        2.2844086386       -0.5568461729
 C         -5.0021542102        0.5326721589       -1.3185646238
 H         -4.5137363660       -0.3536182437       -0.9092049574
 H         -5.7598614953        0.1861869225       -2.0239426167
 C         -3.9753615213        1.3938624912       -2.0692469656
 H         -4.1006924687        2.4364673706       -1.7799004602
 H         -4.1757885790        1.3437426031       -3.1414875023
 C         -2.5149380666        0.9699421388       -1.8750340853
 H         -2.2743319349        0.1654533450       -2.5774141101
 H         -1.8575299420        1.8053420584       -2.1341299318
 H         -5.4867548371        2.0665090292        1.7799642168
 H         -4.8361319302        0.4431611649        1.5842257492
 H         -3.4765520472        2.7571388502        0.1680720770
 H         -3.2081666900        2.4465721816        1.8925284842
 O         -2.0753831572        0.3701741197        1.8393493155
 C         -1.2624431714       -0.7461561414        1.8738890771
 O         -0.9814317231       -1.1412787013        3.0241766033
 O         -0.6712666175       -1.0618283015       -1.6774832506
 C          0.0463736178       -2.5298508455        0.7478743130
 C          1.2606916810       -2.3523079309       -0.1287306334
 C          1.5663013450       -3.1708547751       -1.2074502234
 C          2.6981467221       -2.9290675632       -1.9658327828
 C          3.5435313759       -1.8774061671       -1.6657856157
 C          3.2496393483       -1.0568791736       -0.5813829468
 C          2.1167822128       -1.3009233034        0.1765811568
 H          1.8950041272       -0.6680948212        1.0241313315
 N          4.1067222567       -0.0048229238       -0.2387756631
 S          3.6587776886        1.2732281084        0.7175664837
 O          4.7433148773        2.2192952232        0.5570529596
 O          3.4072456571        0.8322844853        2.0673133245
 C          2.1851680704        1.9930335231        0.0161385065
 C          1.1116054016        2.2686318666        0.8371220865
 C          0.0264920567        2.9558857494        0.3177602796
 C          0.0300568398        3.3456757826       -1.0120590230
 C          1.1047807438        3.0387745888       -1.8322768448
 C          2.1970438040        2.3633264231       -1.3139632019
 H          3.0580144026        2.1351862549       -1.9205646892
 H          1.0990661192        3.3333224685       -2.8694359788
 H         -0.8060400262        3.9017494025       -1.4063523830
 H         -0.8099148893        3.1900874324        0.9560280154
 H          1.1444040717        1.9474627117        1.8672896038
 H          4.8310034150        0.2198140941       -0.9025796063
 H          4.4242734847       -1.6894524805       -2.2601851702
 H          2.9219218869       -3.5657703900       -2.8082650169
 H          0.9056962619       -3.9801536727       -1.4708079049
 H          0.3948474712       -2.5600929963        1.7941516648
 C         -0.6934578367       -3.8362011256        0.4983180057
 C         -2.1399576969       -3.9812935243        0.8639691084
 C         -1.7272248175       -3.9836796037       -0.5757083377
 H         -1.7720737821       -4.9171373443       -1.1174339815
 H         -1.9496361986       -3.1179287051       -1.1785488719
 H         -2.4660013503       -4.9085387847        1.3108034765
 H         -2.6458175089       -3.1093415364        1.2532947173
 H         -0.0628775887       -4.6988598553        0.6910594954
