  62
        -98.93597645
 C         -1.7285027201       -1.1161529304       -0.8941073097
 C         -1.6548132297        0.2380385599       -0.4815339309
 C         -2.9466719696        0.9357365604       -0.3541822514
 C         -4.0855936797        0.2932046604       -0.6654703808
 C         -5.4643114596        0.8730370109       -0.5414500613
 C         -6.0728087696        0.5685035422        0.8344749090
 C         -5.1441295795        0.8929103930        2.0047261587
 H         -5.6895384195        0.6688528840        2.9241842289
 H         -4.2818017397        0.2227643628        1.9720416692
 C         -4.6541630391        2.3472670829        2.0416551574
 H         -5.2981420890        2.9703400925        1.4199575068
 H         -4.7365144090        2.7174725939        3.0658096170
 C         -3.1974466991        2.5378957022        1.6141182772
 H         -2.8949974088        3.5522461424        1.8873350563
 H         -2.5596062893        1.8450018425        2.1688993177
 C         -2.9118554792        2.3624585408        0.1171997473
 H         -3.6016198590        2.9779850705       -0.4635656632
 H         -1.8931662291        2.7132854504       -0.0705066230
 H         -6.3181744699       -0.4953013177        0.8769306399
 H         -7.0005346295        1.1348662025        0.9351175585
 H         -5.4166737793        1.9486079807       -0.6995785623
 H         -6.0946370597        0.4287674703       -1.3136838509
 O         -4.1126288501       -0.9958597100       -1.0916954597
 C         -2.9467135303       -1.7323664804       -1.1935542391
 O         -3.1205118406       -2.9126992506       -1.5622814680
 H          1.6553712801       -0.3855542206       -0.1633845704
 C          1.3344752399       -1.1272560699        0.5433706603
 C          0.2884613897       -1.9880077199        0.2528894510
 C         -0.1222253605       -2.8775306089        1.2466556218
 C          0.4948684796       -2.9085053180        2.4815759919
 C          1.5601260598       -2.0671821280        2.7517260411
 C          1.9771209100       -1.1750729390        1.7739478803
 N          3.0469195102       -0.2968948991        2.0037227595
 S          4.1571074102       -0.0438525104        0.7776283492
 O          4.3066782699       -1.2227381612       -0.0448462898
 O          5.3548281504        0.4049882599        1.4581388888
 C          3.5101510905        1.3058434589       -0.1834443020
 C          2.9009618008        2.3599072296        0.4669539371
 C          2.4377974311        3.4282980991       -0.2828616838
 C          2.5976183610        3.4289245878       -1.6601009838
 C          3.2158671907        2.3647519471       -2.2970828029
 C          3.6781165305        1.2905829076       -1.5535919720
 H          4.1484996203        0.4352917471       -2.0117701612
 H          3.3337339107        2.3624495161       -3.3688177229
 H          2.2333508812        4.2616433574       -2.2411409945
 H          1.9493772713        4.2546361696        0.2080635955
 H          2.7867382508        2.3241243806        1.5374743172
 H          3.4959945002       -0.3925695584        2.9027399995
 H          2.0572501498       -2.0961889873        3.7096171711
 H          0.1541715294       -3.6017358672        3.2359625525
 H         -0.9486344607       -3.5440391089        1.0390699125
 C         -0.4914896903       -1.9988476808       -1.0370056689
 H         -0.8975214706       -3.0173858508       -1.1388350180
 C          0.2179899797       -1.7259796522       -2.3583260192
 C          0.9183585300       -0.4518044027       -2.7190429603
 C          1.7034531697       -1.7201207227       -2.5626714792
 H          2.0839801795       -2.1898633436       -3.4584004288
 H          2.3536227997       -1.8338477222       -1.7086377592
 H          0.7674199801       -0.0648352335       -3.7170856107
 H          0.9900652602        0.3202439080       -1.9705857210
 H         -0.3615881304       -2.1679423428       -3.1662261388
 O         -0.5876066096        0.8501464199       -0.2290825714
