  62
        -98.94130468
 C         -1.2314392998       -0.7722341221        0.4339850493
 C         -2.1078131298       -0.5641625215       -0.6559835907
 C         -3.0930993500        0.5201532082       -0.5000539300
 C         -3.0735277203        1.2775946474        0.6097919705
 C         -3.9492404006        2.4563434970        0.9550144113
 C         -5.4500875205        2.3357194868        0.6548324111
 C         -6.0276052302        0.9185522366        0.7844750000
 H         -5.3039780801        0.2630986464        1.2719236096
 H         -6.9146930003        0.9546173360        1.4194996100
 C         -6.4376505000        0.3154768175       -0.5612276804
 H         -6.9512572001        1.0818658578       -1.1457511099
 H         -7.1518488798       -0.4915299528       -0.3810174910
 C         -5.2967428498       -0.2678156817       -1.3942152107
 H         -4.9254784496       -1.1827627719       -0.9248714413
 H         -5.7018114797       -0.5490816611       -2.3691681809
 C         -4.0921408200        0.6624894387       -1.6120801200
 H         -3.5767283398        0.3396363595       -2.5209743202
 H         -4.4075855802        1.6950601587       -1.7416008293
 H         -5.6514452105        2.7105638775       -0.3477589987
 H         -5.9640157107        3.0036217262        1.3482282615
 H         -3.8014068107        2.6156618762        2.0260021114
 H         -3.5486720907        3.3363984974        0.4426805819
 O         -2.1712446303        1.0775452369        1.6124877005
 C         -1.2328248201        0.0628746771        1.5493078598
 O         -0.4660847502        0.0065443466        2.5335360899
 H          0.8512074399        0.4833007489       -0.2728288397
 C          1.2501796202       -0.3007945206       -0.8980474602
 C          0.7928631404       -1.6017164808       -0.7411042612
 C          1.2968134807       -2.5858572101       -1.5819351318
 C          2.2253461107       -2.2623933992       -2.5566515515
 C          2.6953419205       -0.9685330091       -2.6931472306
 C          2.2017130102        0.0213260203       -1.8513634399
 N          2.6583701999        1.3469162504       -1.9277798790
 S          2.8733512596        2.1928423395       -0.4983934283
 O          1.6060970994        2.6602580688        0.0058583919
 O          3.8321925894        3.2242964199       -0.8358975476
 C          3.6227802498        1.0119571389        0.6102892309
 C          2.9221490898        0.4861832580        1.6760261105
 C          3.5328807799       -0.4767249925        2.4654504698
 C          4.8224869800       -0.8950879720        2.1796546297
 C          5.5172650800       -0.3490539011        1.1106428501
 C          4.9125066499        0.6103663493        0.3165767907
 H          5.4223504498        1.0660864900       -0.5166875989
 H          6.5226925201       -0.6712099207        0.8929059300
 H          5.2879791702       -1.6483325123        2.7954977492
 H          2.9844948500       -0.8945858432        3.2949563695
 H          1.9152468897        0.8167717276        1.8808353206
 H          3.4196117899        1.4984741410       -2.5732767488
 H          3.4289903605       -0.7225183084       -3.4451680903
 H          2.5994460609       -3.0335640887       -3.2125389720
 H          0.9576329109       -3.6034693603       -1.4795018825
 C         -0.1894204396       -1.8730141718        0.3732676786
 H          0.3674120203       -1.8122261024        1.3209257487
 C         -0.8503746393       -3.2325750119        0.2838936376
 C         -0.1872822291       -4.4338890322        0.8858730168
 C         -1.4044227993       -3.8469513729        1.5331937171
 H         -2.3365788491       -4.3883846530        1.4728642167
 H         -1.2811412195       -3.2940618035        2.4535380275
 H          0.7642832508       -4.2879155623        1.3741980870
 H         -0.2861162288       -5.3837918818        0.3825858761
 H         -1.4170459492       -3.3606006314       -0.6308646726
 O         -2.0702310096       -1.2443610108       -1.7142660711
