  62
        -98.94373756
 C          2.4320591897        1.1857076909        0.3178337097
 C          2.7790095598        0.5352479009       -0.8910205803
 C          3.7799758200       -0.5356316989       -0.7756715004
 C          4.2870294202       -0.8379598787        0.4335419996
 C          5.2767676104       -1.9346481585        0.6991897796
 C          4.5700983407       -3.2540581086        1.0400207098
 C          3.4628692607       -3.6334039089        0.0564673799
 H          3.0562443109       -4.5944291889        0.3792532400
 H          2.6539822905       -2.9022967390        0.1306767799
 C          3.9196816106       -3.7350903689       -1.4056040301
 H          3.4969300207       -4.6426493390       -1.8414392200
 H          5.0051838606       -3.8304570187       -1.4479250803
 C          3.4784258902       -2.5677620091       -2.2905976602
 H          2.4029962302       -2.4072462293       -2.1779329501
 H          3.6601592702       -2.8442262091       -3.3324346402
 C          4.1929918700       -1.2336483589       -2.0409688704
 H          5.2739830000       -1.3855334787       -2.0618086505
 H          3.9236555498       -0.5561298790       -2.8563840004
 H          5.3181522509       -4.0481484384        1.0720584597
 H          4.1281262608       -3.1638088486        2.0352798198
 H          5.9088400803       -2.0649265584       -0.1769802205
 H          5.8993267204       -1.6377524183        1.5448962495
 O          3.9142609302       -0.2021770387        1.5749209196
 C          2.9763131900        0.8175092511        1.5470797696
 O          2.7116298700        1.3051371312        2.6659548896
 O          2.2821155196        0.8333917807       -2.0075080703
 C          1.4229910495        2.3186153307        0.3007111997
 C          0.1003120796        1.8463944304       -0.2532844801
 C         -0.6615911907        2.5937899102       -1.1418706701
 C         -1.8816802206        2.1202888699       -1.5930159500
 C         -2.3718685104        0.9005381399       -1.1646757498
 C         -1.6244718901        0.1506147701       -0.2661881498
 C         -0.4037727902        0.6266964003        0.1825708800
 H          0.1727239400        0.0405635305        0.8899577800
 N         -2.1385400998       -1.0874262000        0.1903495203
 S         -3.4132589497       -0.9406734802        1.2868960804
 O         -3.2544959199        0.2346899599        2.1148217203
 O         -3.4726817494       -2.2092196601        1.9797467205
 C         -4.8496745999       -0.7608325305        0.2525127806
 C         -5.4943066001        0.4590224693        0.1879510706
 C         -6.6076894702        0.5850523790       -0.6279972093
 C         -7.0543102201       -0.5049753711       -1.3596909892
 C         -6.3973567398       -1.7240614410       -1.2808604192
 C         -5.2834189697       -1.8570863107       -0.4671845393
 H         -4.7478465795       -2.7866537506       -0.3697234893
 H         -6.7491560697       -2.5697428611       -1.8494972891
 H         -7.9206450602       -0.4040581713       -1.9942318291
 H         -7.1200976904        1.5315592689       -0.6899947793
 H         -5.1085871002        1.2779192694        0.7735147205
 H         -1.4281905296       -1.6711200198        0.6109782703
 H         -3.3150769403        0.5215733196       -1.5226091097
 H         -2.4571967608        2.7091452297       -2.2905297199
 H         -0.2972611109        3.5483416202       -1.4843142802
 H          1.2624936296        2.5987049608        1.3530863197
 C          1.9966186892        3.5103702108       -0.4385810405
 C          1.6074761690        4.9036547107       -0.0484198005
 C          2.9790302391        4.3915207110        0.2705060394
 H          3.8194910490        4.7794249012       -0.2850646008
 H          3.2106254093        4.1471401812        1.2974585393
 H          1.5091981887        5.6483260507       -0.8238230406
 H          0.9090591590        5.0184949507        0.7669086695
 H          2.1781585691        3.3001118307       -1.4862184105
