  62
        -98.94549877
 C          1.8161011210        1.2341477725        0.3603266176
 C          1.6172867406        0.0284318818       -0.3559881342
 C          2.4209672664       -1.1193016038        0.0925158101
 C          3.2650645694       -0.9712024037        1.1298365531
 C          4.1852107783       -2.0389499067        1.6452264312
 C          5.5514383738       -1.9780981848        0.9474659022
 C          5.4652814803       -1.9056174332       -0.5771457579
 H          5.0075982724       -0.9559447337       -0.8634093115
 H          6.4882486045       -1.8970618930       -0.9595421336
 C          4.6865513873       -3.0591364325       -1.2248810468
 H          5.2497557082       -3.4202091841       -2.0879611883
 H          4.6030751257       -3.8897882238       -0.5229691579
 C          3.2932659865       -2.6791178539       -1.7291186331
 H          3.3629924192       -1.7907044318       -2.3615706146
 H          2.9229406331       -3.4976536953       -2.3519471976
 C          2.2412537212       -2.4167989160       -0.6442853995
 H          2.2133234856       -3.2570033527        0.0528556320
 H          1.2669467418       -2.3470085521       -1.1365375523
 H          6.0821645847       -1.0917708757        1.3030261327
 H          6.1270819300       -2.8581291729        1.2401788659
 H          4.3271672553       -1.8842127107        2.7163284283
 H          3.7282495221       -3.0141411433        1.4874696932
 O          3.4109738965        0.1971669054        1.8063413477
 C          2.6948103725        1.3265544568        1.4384954221
 O          2.9182923453        2.3307668274        2.1454648601
 O          0.8094768553       -0.0887581488       -1.3115519526
 C          1.0449022748        2.4799664746       -0.0327389209
 C         -0.4441122422        2.2271569762       -0.0204028485
 C         -1.3123527270        2.8202918383       -0.9291739953
 C         -2.6723784457        2.5687268537       -0.8713389194
 C         -3.1963377453        1.7126833840        0.0795041888
 C         -2.3357139148        1.1081226805        0.9869797348
 C         -0.9773379064        1.3818834502        0.9434317120
 H         -0.3156293937        0.9133146291        1.6620099163
 N         -2.8484363248        0.2060423364        1.9338139261
 S         -3.9860544663       -0.9074940287        1.4143439022
 O         -5.3005243947       -0.3183692508        1.4958139280
 O         -3.7750051128       -2.0754231463        2.2424947093
 C         -3.6045097752       -1.2684703126       -0.2920961951
 C         -4.6103481228       -1.1907555373       -1.2345335243
 C         -4.3114818444       -1.4639026726       -2.5594131060
 C         -3.0150981101       -1.7980222003       -2.9189306164
 C         -2.0163653363       -1.8734951100       -1.9606580248
 C         -2.3119015121       -1.6130286945       -0.6329576892
 H         -1.5447569238       -1.6604519453        0.1239146051
 H         -1.0015626304       -2.1070407273       -2.2393536274
 H         -2.7775724013       -1.9983841341       -3.9517525210
 H         -5.0867411040       -1.4071500569       -3.3064902468
 H         -5.6003351296       -0.9114782907       -0.9118919986
 H         -2.1424176656       -0.2359654139        2.5036760925
 H         -4.2524305473        1.5033576687        0.1364413840
 H         -3.3336301474        3.0403615277       -1.5817374361
 H         -0.9226092997        3.4805802147       -1.6862726336
 H          1.2687148676        3.2329075950        0.7379191002
 C          1.5450518739        2.9902605443       -1.3704238274
 C          1.5938871322        4.4602610733       -1.6564463672
 C          2.8636040895        3.6999159786       -1.4224758171
 H          3.5188802621        3.5139862600       -2.2602704831
 H          3.3837359639        3.8448680630       -0.4862767533
 H          1.3798999700        4.7984251888       -2.6592007963
 H          1.2601220922        5.1338317426       -0.8814938764
 H          1.3066824333        2.3162118568       -2.1852060743
