  62
        -98.94474771
 C          1.6191645854        1.4507484447       -0.2452695969
 C          2.7530218531        0.8965948175        0.3869081259
 C          3.2462492874       -0.3839905588       -0.1465787424
 C          2.6042512014       -0.9606438549       -1.1801116206
 C          2.8779178860       -2.2476859804       -1.9300596626
 C          3.8269469966       -3.2979285044       -1.3598372294
 C          3.3270454773       -3.9857303600       -0.0898347070
 H          4.1199696022       -4.6409463566        0.2786739960
 H          2.4686401018       -4.6115711462       -0.3473382700
 C          2.8876976228       -3.0560597225        1.0391947544
 H          2.5620115420       -3.6804486589        1.8766871810
 H          2.0143206805       -2.4778395498        0.7261549148
 C          3.9665096433       -2.1076972412        1.5602273354
 H          4.8481135911       -2.6814331063        1.8542962219
 H          3.5688190862       -1.6218834557        2.4557539790
 C          4.4029535710       -0.9985808291        0.5874498386
 H          5.1556645620       -1.3571953163       -0.1105392495
 H          4.8554973878       -0.1943274593        1.1753477476
 H          4.8121429382       -2.8701846996       -1.1987828147
 H          3.9369327171       -4.0677831738       -2.1286531890
 H          1.8955170820       -2.7048815122       -2.0876503396
 H          3.2445411911       -1.9478458840       -2.9183143008
 O          1.5344239846       -0.3675923377       -1.7829335381
 C          0.9904653979        0.8110274707       -1.3108461318
 O         -0.0281620299        1.1899127054       -1.9225399616
 H          0.0820245027        0.4927763542        1.4911401129
 C         -0.7146562354        1.2002448379        1.3125515647
 C         -0.4351014210        2.4250593452        0.7198198457
 C         -1.4831254091        3.3156348954        0.5221910794
 C         -2.7756647946        2.9712148759        0.8803159597
 C         -3.0560302514        1.7260177110        1.4128956876
 C         -2.0122334137        0.8332586056        1.6239776536
 N         -2.2327630299       -0.4707452623        2.1202158931
 S         -1.9287167805       -1.7114680945        1.0283936131
 O         -2.2927199805       -2.9263893195        1.7267715836
 O         -0.5731995508       -1.6313221389        0.5525591919
 C         -3.1031157426       -1.4102652455       -0.2805485729
 C         -2.8161009172       -0.4750950703       -1.2544193207
 C         -3.7856000202       -0.1875373032       -2.2042329439
 C         -5.0132897439       -0.8294530039       -2.1634115541
 C         -5.2840624749       -1.7673965319       -1.1779743789
 C         -4.3236618437       -2.0568805052       -0.2230923933
 H         -4.4863611177       -2.7792134090        0.5607329758
 H         -6.2381202005       -2.2686309742       -1.1489663396
 H         -5.7618334614       -0.5977608824       -2.9046677887
 H         -3.5662320885        0.5421487831       -2.9671361355
 H         -1.8522927359        0.0107493633       -1.2752403552
 H         -3.1565332060       -0.6036819014        2.5103698166
 H         -4.0684887017        1.4434257029        1.6595252580
 H         -3.5788586577        3.6738821612        0.7196982129
 H         -1.2885722821        4.2785070234        0.0786198033
 C          0.9910522092        2.7127035370        0.3162621146
 H          1.5696084551        2.9541504224        1.2208156751
 C          1.1155876010        3.8594680706       -0.6654381007
 C          1.2420468181        5.2700994474       -0.1743936365
 C          2.4263284025        4.5770724917       -0.7759243090
 H          2.7656844745        4.8837076342       -1.7538695417
 H          3.2216853585        4.2553851190       -0.1194538350
 H          1.2400133976        5.4306745500        0.8931368535
 H          0.7699589753        6.0578488006       -0.7419265522
 H          0.5637883189        3.6808855744       -1.5815665067
 O          3.3298360238        1.4461982609        1.3661830664
