  62
        -98.93333892
 C         -1.5195518407       -0.4229435069        0.8690697832
 C         -2.8690004192       -0.5101540321        1.2988229344
 C         -3.8950020452       -0.5561889691        0.2467395134
 C         -3.5127739733       -0.4893375858       -1.0409583453
 C         -4.4364520426       -0.4421719823       -2.2248328799
 C         -5.0290969738        0.9735593601       -2.3738986428
 C         -6.5398144899        1.0515866849       -2.1518602720
 H         -6.8031355982        2.1080871234       -2.0667788468
 H         -7.0484387847        0.6556791750       -3.0334197846
 C         -7.0751779766        0.3035516078       -0.9270253185
 H         -8.0919273345        0.6631336259       -0.7551866090
 H         -7.1561561174       -0.7606396478       -1.1533972503
 C         -6.2685900723        0.4702541936        0.3672982353
 H         -6.9726536019        0.5486932980        1.1982318091
 H         -5.6969405686        1.3985254928        0.3474641794
 C         -5.3244739648       -0.7031094001        0.6897824586
 H         -5.7403827226       -1.6286069248        0.2819472546
 H         -5.2700666452       -0.8177189738        1.7764234588
 H         -4.8099719163        1.3565163215       -3.3718962433
 H         -4.5206098746        1.6338281622       -1.6678096928
 H         -3.8489791822       -0.7018083838       -3.1058049607
 H         -5.2281881578       -1.1781988891       -2.1035210364
 O         -2.2136975093       -0.3764601198       -1.4163026431
 C         -1.1827683064       -0.3332290755       -0.4824670654
 O         -0.0539269164       -0.2260928775       -0.9924929224
 O         -3.2018727155       -0.5482659568        2.5136817831
 C         -0.4507988775       -0.3547437269        1.9464028632
 C          0.4266517733        0.8526118014        1.7362721520
 C         -0.0791788128        2.1059440322        2.0713851400
 C          0.6877466378        3.2441184950        1.9174713980
 C          1.9740947947        3.1522278102        1.4165326899
 C          2.4840117018        1.9099365375        1.0618270976
 C          1.7142172686        0.7659107226        1.2277506604
 H          2.1181070031       -0.1914475018        0.9423843108
 N          3.7968273695        1.7906063916        0.5601279021
 S          3.9815900299        1.2350790130       -1.0203109813
 O          5.2905902254        1.7232447662       -1.4103064442
 O          2.8835162088        1.6554487874       -1.8581590530
 C          4.0654906692       -0.5355584551       -0.8852012841
 C          3.0379620897       -1.3183135906       -1.3703473199
 C          3.1636364291       -2.6976782169       -1.2945054169
 C          4.2980941337       -3.2625562077       -0.7325686980
 C          5.3159386517       -2.4585621081       -0.2407602181
 C          5.2035102875       -1.0806025248       -0.3219116886
 H          5.9768482286       -0.4175995449        0.0286549599
 H          6.1948144293       -2.9017905106        0.1989838007
 H          4.3873499749       -4.3363208656       -0.6775957754
 H          2.3694392463       -3.3224366162       -1.6718864538
 H          2.1562613143       -0.8422068938       -1.7699191130
 H          4.3372303701        2.6396445629        0.6625363489
 H          2.5800789006        4.0378855128        1.2931255376
 H          0.2837827116        4.2085179292        2.1868778249
 H         -1.0867218163        2.1746926048        2.4587763724
 H         -1.0224180582       -0.1889024613        2.8746982282
 C          0.3378227754       -1.6376142786        2.1580072199
 C         -0.3578108044       -2.9652467963        2.1190724523
 C          0.6465517280       -2.6130927054        1.0651376508
 H          1.6067824894       -3.1072071750        1.0855232007
 H          0.2952072318       -2.3866293996        0.0716486274
 H         -0.0953545234       -3.7084307119        2.8565631637
 H         -1.4034570366       -2.9676642236        1.8471040587
 H          1.0977430073       -1.5140661091        2.9237566247
