  62
        -98.94059887
 C         -2.2760555089       -0.9779517093       -0.2735229108
 C         -3.6076026689       -1.1671476296        0.1702596492
 C         -4.6018448890       -0.2215868792       -0.3528675702
 C         -4.2082108490        0.7372754613       -1.2108536196
 C         -5.1021575191        1.8033599816       -1.7737189289
 C         -5.0879431090        3.0593040811       -0.8910226881
 C         -5.3079148289        2.7718986502        0.5943067917
 H         -4.4574684289        2.2017566899        0.9757050813
 H         -5.3088337589        3.7323236798        1.1143083723
 C         -6.6075232789        2.0178956899        0.9093505414
 H         -7.0888679588        2.4940185394        1.7661241617
 H         -7.2947228190        2.0968514905        0.0663233615
 C         -6.4151763388        0.5436049997        1.2697079904
 H         -7.3560022488        0.1688252894        1.6812487803
 H         -5.6571835288        0.4540074192        2.0519145703
 C         -6.0226211089       -0.3816818296        0.1108019598
 H         -6.7169150990       -0.2458048291       -0.7205818700
 H         -6.1073023889       -1.4129117998        0.4655118592
 H         -5.8595799291        3.7426278413       -1.2501818576
 H         -4.1184855491        3.5502672112       -1.0046462279
 H         -4.7395172992        2.0652338323       -2.7690908387
 H         -6.1153250391        1.4150971717       -1.8564087890
 O         -2.9237684391        0.8773088816       -1.6286503596
 C         -1.9215911490        0.0392829813       -1.1595275502
 O         -0.7883318091        0.3001531616       -1.6073522901
 O         -3.9466246288       -2.0800439301        0.9702617586
 C         -1.1924706489       -1.8979066396        0.2632321985
 C         -0.2249465688       -1.0780037301        1.0804693590
 C         -0.7006502288       -0.4549548408        2.2326314494
 C          0.1278700013        0.3396404387        2.9992297998
 C          1.4466496213        0.5353552190        2.6273284099
 C          1.9344458312       -0.0876059203        1.4851072694
 C          1.1015832711       -0.8976431598        0.7235260490
 H          1.4987960411       -1.3587345693       -0.1640955513
 N          3.2873601912        0.0639208300        1.1229507694
 S          3.6983236710        0.3413609510       -0.4930056004
 O          3.0566849110        1.5444522413       -0.9750571296
 O          3.4859050410       -0.8638043986       -1.2517978612
 C          5.4502421510        0.6250568309       -0.3038241504
 C          5.9364362110        1.9185029109       -0.3080748096
 C          7.2960180910        2.1253099008       -0.1340119496
 C          8.1414756411        1.0407522507        0.0436434397
 C          7.6390782311       -0.2521851493        0.0447483789
 C          6.2810933511       -0.4655066292       -0.1300835511
 H          5.8464661011       -1.4512075392       -0.1451029017
 H          8.2999881211       -1.0930324094        0.1802101884
 H          9.1989710111        1.2040017706        0.1789678597
 H          7.6892348410        3.1291829608       -0.1381302390
 H          5.2420446610        2.7296533810       -0.4583948590
 H          3.7506006812        0.7545021296        1.7006394298
 H          2.0938752813        1.1649357386        3.2194363802
 H         -0.2549448487        0.8178433482        3.8883784902
 H         -1.7354471887       -0.6005001310        2.5120383194
 H         -1.7108766788       -2.5917684900        0.9411866082
 C         -0.5437173989       -2.6966678289       -0.8453602320
 C          0.1612612911       -3.9786002591       -0.5208205928
 C         -1.1471981590       -4.0067474986       -1.2505217328
 H         -1.1505571590       -4.2695375980       -2.2977291929
 H         -2.0252604089       -4.3359007290       -0.7141896429
 H          1.0617898011       -4.2196650187       -1.0650547231
 H          0.1723878712       -4.2920080897        0.5121548370
 H         -0.1305944690       -2.0739488384       -1.6313848516
