  62
        -98.94207043
 C         -0.6674918506       -1.2644188628        0.6447168738
 C         -1.2474196316       -0.8887479984       -0.5880323729
 C         -2.2880760710        0.1560687440       -0.5344069917
 C         -2.5785375110        0.7372926342        0.6438671571
 C         -3.5988136677        1.7933407792        1.0161657000
 C         -4.6512298070        2.2484714661        0.0088674049
 C         -5.7309419964        1.2084094710       -0.2933232794
 H         -6.3734897060        1.1128617229        0.5856895272
 H         -6.3471289636        1.5794022154       -1.1150748742
 C         -5.2238060459       -0.1886059594       -0.6425311569
 H         -4.6552198560       -0.5938479121        0.1969032335
 H         -6.0945819225       -0.8349915955       -0.7826435904
 C         -4.3720188419       -0.2768538509       -1.9066435729
 H         -4.1921274640       -1.3359302650       -2.1102289062
 H         -4.9256179558        0.1360506096       -2.7522799391
 C         -3.0044687628        0.4212619191       -1.8275939442
 H         -2.3687363332        0.0062529436       -2.6149217928
 H         -3.0992713571        1.4878269163       -2.0091168632
 H         -4.1768367889        2.5848362068       -0.9077447477
 H         -5.1480384888        3.1184146905        0.4466428587
 H         -4.1044057499        1.4158722205        1.9112302739
 H         -3.0221559190        2.6652183773        1.3391408881
 O         -1.8927706276        0.4286105860        1.7861348071
 C         -0.9581096529       -0.5891865799        1.8272697291
 O         -0.4653883751       -0.7925489532        2.9564606692
 H          1.9255266224       -0.3490256117        0.8288774829
 C          2.2056664657       -1.0018193293        0.0136280123
 C          1.4800056269       -2.1676462715       -0.2017698539
 C          1.8682542052       -3.0156379325       -1.2299977762
 C          2.9439459909       -2.6867895110       -2.0365127437
 C          3.6516347014       -1.5170408298       -1.8341850378
 C          3.2811213781       -0.6700828844       -0.7939239943
 N          3.9951411008        0.5094526862       -0.5579500136
 S          3.4781808146        1.7168113148        0.4490147013
 O          4.3596006620        2.8254302124        0.1452972975
 O          3.4917775326        1.2713082164        1.8207897954
 C          1.8189473531        2.1717100516       -0.0253104773
 C          1.0455429153        2.7904133450        0.9360789578
 C         -0.2103141156        3.2601234483        0.5914131145
 C         -0.6762265148        3.0927689808       -0.7027570555
 C          0.1049692405        2.4560058095       -1.6533793148
 C          1.3690787942        1.9976926994       -1.3182941892
 H          1.9903558973        1.5033709370       -2.0471524222
 H         -0.2643201493        2.3140004783       -2.6561114592
 H         -1.6523859157        3.4640061571       -0.9706046639
 H         -0.8147338063        3.7551058975        1.3349357486
 H          1.4403275872        2.8866948110        1.9353921701
 H          4.6333926657        0.8126918163       -1.2761445847
 H          4.4855636052       -1.2577634887       -2.4678056477
 H          3.2315690868       -3.3491580129       -2.8386596882
 H          1.3237076065       -3.9274698468       -1.4090105060
 C          0.3041912068       -2.4300364609        0.7049786187
 H          0.6750342367       -2.4629826312        1.7399786175
 C         -0.4247349266       -3.7233362845        0.4033623144
 C          0.0974383828       -5.0228284923        0.9355799511
 C         -1.1489951939       -4.4230401833        1.5121915389
 H         -2.0970066165       -4.8918647065        1.2946653421
 H         -1.0984801128       -3.9784499072        2.4958790708
 H          0.0033004404       -5.9076768450        0.3244874407
 H          0.9966751349       -4.9919936428        1.5321704521
 H         -0.8943336941       -3.7204340225       -0.5735199367
 O         -0.9316420476       -1.4124343365       -1.6869641307
