  62
        -98.94022956
 C         -2.3384923198       -0.8679218292       -0.2337157505
 C         -3.6034925997       -1.1477984196        0.3378799294
 C         -4.7397536497       -0.3992163488       -0.2143387795
 C         -4.5266495998        0.4726741222       -1.2168678587
 C         -5.5810284198        1.3449526230       -1.8331222576
 C         -5.6596190595        2.7029864422       -1.1215155261
 C         -5.7382359792        2.5976562907        0.4015503238
 H         -4.8002483691        2.1832547201        0.7784934031
 H         -5.8204599989        3.6135817603        0.7938820448
 C         -6.9107674892        1.7529066503        0.9194589631
 H         -7.3856975189        2.2839826795        1.7470406238
 H         -7.6598828294        1.6390730412        0.1351944632
 C         -6.5152848093        0.3720169697        1.4460417716
 H         -7.3721980192       -0.0460350307        1.9809086814
 H         -5.6991888191        0.4745897488        2.1657563816
 C         -6.0947548897       -0.6526998693        0.3845989705
 H         -6.0285419197       -1.6292374298        0.8730324795
 H         -6.8567975798       -0.7094053483       -0.3950649194
 H         -6.5327503894        3.2396394128       -1.4969658154
 H         -4.7683165594        3.2798766924       -1.3788597957
 H         -6.5423269599        0.8378356830       -1.7800534879
 H         -5.3228881000        1.5079222140       -2.8807642075
 O         -3.3010069899        0.6994455525       -1.7543709387
 C         -2.1731298899        0.0548770018       -1.2665503596
 O         -1.1138311000        0.3841963423       -1.8328203695
 O         -3.7725304697       -1.9792687805        1.2701871286
 C         -1.1156434198       -1.5778889300        0.3211956585
 C         -0.1880752995       -0.5552088607        0.9293914494
 C         -0.6519577492        0.2020551082        2.0033544102
 C          0.1449314111        1.1694678175        2.5822851511
 C          1.4238460310        1.3995437378        2.1057059010
 C          1.8940337007        0.6546026788        1.0308440302
 C          1.0915372904       -0.3212636604        0.4540551193
 H          1.4814725902       -0.8835604496       -0.3772962613
 N          3.1719650606        0.9001005092        0.5053933702
 S          4.0573463503       -0.3628026002       -0.1733422113
 O          3.5949269600       -0.6065704688       -1.5160424615
 O          4.0623892403       -1.5018201012        0.7178923275
 C          5.6723971904        0.3920290696       -0.2245632009
 C          5.9314791603        1.3173460106       -1.2183832200
 C          7.1707768704        1.9362983704       -1.2508424896
 C          8.1252605706        1.6215610793       -0.2946007001
 C          7.8517999806        0.6892231683        0.6947094690
 C          6.6132505005        0.0677120584        0.7341749386
 H          6.3575741106       -0.6672567823        1.4803225779
 H          8.5971437607        0.4445788074        1.4341898086
 H          9.0892575406        2.1044415391       -0.3228619198
 H          7.3875748304        2.6597229012       -2.0202176889
 H          5.1617265802        1.5225379414       -1.9442956796
 H          3.7443770108        1.4736671285        1.1095241806
 H          2.0481161212        2.1567086772        2.5552415217
 H         -0.2281952487        1.7468792867        3.4148566017
 H         -1.6512677591        0.0183366480        2.3745535002
 H         -1.4937133897       -2.2198720107        1.1306298179
 C         -0.4619928902       -2.4526885490       -0.7256601426
 C          0.4319158098       -3.5774030896       -0.2996336239
 C         -0.9156287704       -3.8714000987       -0.8856105639
 H         -0.9666375807       -4.2865554177       -1.8809260243
 H         -1.6944529003       -4.2220079293       -0.2242297241
 H          1.3134902196       -3.7846163791       -0.8878778943
 H          0.5716631899       -3.7279158207        0.7604139459
 H         -0.1981359103       -1.9093752281       -1.6264201520
