  62
        -98.93935102
 C          2.2890292394        0.8569208599        0.6322714304
 C          3.4408121095        0.9351250901       -0.1890829395
 C          4.5144298896       -0.0244125398        0.1143598306
 C          4.3532843196       -0.9112430898        1.1119307105
 C          5.3403903297       -1.9794273497        1.4819314106
 C          5.0612460900       -3.2841275297        0.7226965705
 C          4.8757854301       -3.0961740296       -0.7830835795
 H          4.7159383704       -4.0859675597       -1.2162764096
 H          3.9655363201       -2.5181675698       -0.9600011896
 C          6.0558097101       -2.4132675794       -1.4885112393
 H          6.9447419701       -2.4669275093       -0.8590487692
 H          6.2762546403       -2.9585618193       -2.4085802793
 C          5.8014186300       -0.9574599894       -1.8831090993
 H          4.8604634200       -0.8865827696       -2.4342971994
 H          6.6015966900       -0.6434920593       -2.5585466392
 C          5.7587113097        0.0485763405       -0.7262214292
 H          6.6489247496       -0.0666197994       -0.1048960991
 H          5.7683941496        1.0527646305       -1.1595318392
 H          5.8874778501       -3.9733539896        0.9065018306
 H          4.1493511000       -3.7307128299        1.1262391504
 H          6.3466237497       -1.6275845895        1.2626203908
 H          5.2560878896       -2.1679927498        2.5535128906
 O          3.2332036895       -0.9615476800        1.8783023004
 C          2.1853981894       -0.0847128902        1.6613348703
 O          1.2283163793       -0.2333866504        2.4497824102
 H         -1.4918696607        1.0296423593        0.6993228699
 C         -1.1472884805        0.9877435894       -0.3231118900
 C          0.1657726194        1.3204384196       -0.6243756899
 C          0.5922519296        1.2417548898       -1.9460020998
 C         -0.2794840702        0.8279351597       -2.9362605999
 C         -1.5864708502        0.4912567995       -2.6319700701
 C         -2.0262876804        0.5774685493       -1.3157563702
 N         -3.3662432404        0.2956186391       -0.9973397303
 S         -3.7537343704       -0.3854860410        0.4965850596
 O         -3.6612545107        0.6336315789        1.5113960996
 O         -2.9832634403       -1.5902270809        0.7127156696
 C         -5.4683003503       -0.7847749813        0.2123705893
 C         -5.8368259901       -2.0912681813       -0.0452592008
 C         -7.1720942300       -2.3759994815       -0.2862314809
 C         -8.1099199602       -1.3547728517       -0.2685753110
 C         -7.7248440804       -0.0478812916       -0.0076034409
 C         -6.3922696205        0.2432406286        0.2358982393
 H         -6.0475810607        1.2407131186        0.4529354594
 H         -8.4571041505        0.7431359483        0.0081708691
 H         -9.1480132601       -1.5791355418       -0.4563248211
 H         -7.4748121898       -3.3913049816       -0.4858157010
 H         -5.0736548200       -2.8529801712       -0.0415368607
 H         -3.8501266802       -0.1812904209       -1.7465332404
 H         -2.2642417500        0.1687295294       -3.4078225502
 H          0.0637305399        0.7638242498       -3.9579230599
 H          1.6128113796        1.4981736799       -2.1846920897
 C          1.0890506992        1.7785206697        0.4799043503
 H          0.5338647191        1.6957794096        1.4249740102
 C          1.4702025490        3.2333078498        0.2783137004
 C          0.4660723988        4.2932690396        0.6118270003
 C          1.6774539488        4.1088492397        1.4751363205
 H          2.4577522186        4.8540703399        1.4388944306
 H          1.5455729387        3.6612794397        2.4500417604
 H          0.4120001388        5.1678132696       -0.0179784396
 H         -0.4883000612        3.9710403594        1.0019376502
 H          2.1135141491        3.3952640799       -0.5760039495
 O          3.5927183194        1.7548681902       -1.1329044194
