  62
        -98.93380887
 C         -2.3281538389       -0.6194011786        0.1236310561
 C         -2.9384201328        0.3596625488        0.9497512098
 C         -3.9465154811        1.2172930974        0.3159121406
 C         -4.2000723581        1.0678090424       -0.9968053787
 C         -5.2382933652        1.8334478916       -1.7634489245
 C         -6.5854506232        1.0972570137       -1.7591888645
 C         -7.0365032981        0.6416372436       -0.3714010969
 H         -8.0112418546        0.1627704133       -0.4870163744
 H         -6.3457408751       -0.1210053117       -0.0044900170
 C         -7.1410985886        1.7696739055        0.6645259227
 H         -7.1819830242        2.7349452348        0.1586448581
 H         -8.0762463700        1.6531199421        1.2163213746
 C         -6.0137212468        1.7877481065        1.6985562573
 H         -5.9078686280        0.7946698432        2.1428229212
 H         -6.2978580470        2.4751613518        2.4999105693
 C         -4.6402042470        2.2325068772        1.1801488930
 H         -4.7363499386        3.1847256744        0.6544244909
 H         -3.9902411354        2.3829969945        2.0471935427
 H         -7.3405141409        1.7568787563       -2.1906222398
 H         -6.4995926822        0.2149683791       -2.3975242454
 H         -5.3512277501        2.8226645961       -1.3240438168
 H         -4.8957081283        1.9398659255       -2.7940005676
 O         -3.5600433145        0.1577907315       -1.7695805905
 C         -2.6200205722       -0.7188618276       -1.2384777593
 O         -2.1422146848       -1.4989716777       -2.0782690660
 H          0.5058689661        0.1519436074        1.6419095075
 C          0.8743380005       -0.3882395534        0.7784152952
 C          0.0561426420       -1.3428138179        0.1805286480
 C          0.5470837341       -2.0090514446       -0.9365071596
 C          1.8145927023       -1.7326671120       -1.4205192461
 C          2.6211767856       -0.7856721824       -0.8174750625
 C          2.1404821255       -0.1014584337        0.2906480086
 N          2.9415996091        0.8808057030        0.9014350370
 S          4.4960039565        0.4440779648        1.3666037995
 O          4.5751201853       -0.9636697378        1.6813360599
 O          4.8446364627        1.3616526350        2.4292648360
 C          5.4944570889        0.8068510484       -0.0620088735
 C          6.2654897124       -0.1872006133       -0.6320152485
 C          7.0454998643        0.1199175812       -1.7360864441
 C          7.0414464377        1.4088957459       -2.2467384257
 C          6.2634358098        2.3965320314       -1.6608617872
 C          5.4822566797        2.0963918626       -0.5564027107
 H          4.8676269802        2.8352935651       -0.0697544069
 H          6.2633546392        3.3977883675       -2.0607057730
 H          7.6484666475        1.6455709953       -3.1063020839
 H          7.6514825345       -0.6462115458       -2.1924677860
 H          6.2328680310       -1.1762048174       -0.2034198788
 H          2.4755375996        1.3729119023        1.6503531443
 H          3.6068015999       -0.5703260852       -1.1964542842
 H          2.1757014151       -2.2632682339       -2.2884650310
 H         -0.0679350744       -2.7218077768       -1.4554791758
 C         -1.3105379576       -1.5385937733        0.7886465970
 H         -1.2436562855       -1.1400232168        1.8134408464
 C         -1.8430680211       -2.9563259298        0.9624908033
 C         -2.0654559019       -3.9616575452       -0.1258489620
 C         -0.9828645860       -4.1818044634        0.8867208559
 H         -1.1264332128       -4.9524914696        1.6294988852
 H          0.0427050457       -4.0575492117        0.5757878982
 H         -2.9562918291       -4.5706421140       -0.0590324848
 H         -1.8118638414       -3.6936675231       -1.1373171807
 H         -2.6018777501       -2.9618818168        1.7419809581
 O         -2.6523877740        0.5085188884        2.1701313914
