  62
        -98.93800960
 C          2.3769387506        1.2089256394       -0.0976408206
 C          3.1773216707        0.5095951994        0.8318652894
 C          4.0325137605       -0.5697094607        0.2999918494
 C          3.9928729403       -0.8335850908       -1.0197268405
 C          4.7274423802       -1.9089173410       -1.7752140105
 C          4.1093550701       -3.3018471309       -1.5704838603
 C          3.7271164602       -3.6313574407       -0.1296316702
 H          3.0240010103       -2.8803131506        0.2363350098
 H          3.2009995802       -4.5897957107       -0.1358094700
 C          4.8973382803       -3.7477890707        0.8442826297
 H          4.4879802804       -4.0662560006        1.8066361098
 H          5.5750135802       -4.5308132208        0.4969397397
 C          5.7079002204       -2.4702517407        1.0723276995
 H          6.3820736404       -2.2804124709        0.2415492594
 H          6.3376419505       -2.6375849707        1.9510709894
 C          4.8728368606       -1.2281011106        1.3679313894
 H          4.1900197907       -1.4442926805        2.1979490395
 H          5.5399177307       -0.4422429406        1.7431598593
 H          3.2016096400       -3.3602180909       -2.1761041302
 H          4.8117858400       -4.0494771510       -1.9423414003
 H          4.6579385101       -1.6508803911       -2.8341343405
 H          5.7782491802       -1.9063072110       -1.5016576406
 O          3.1922991103       -0.1395353109       -1.8786390105
 C          2.3722598804        0.8900117392       -1.4550925005
 O          1.7046819504        1.4259854292       -2.3588266005
 H          0.2224921906       -0.0013382603        0.6813607498
 C         -0.4502337994        0.7547040897        0.2932135598
 C          0.0351104707        2.0370455596        0.0662762496
 C         -0.8450271293        2.9984927196       -0.4126762204
 C         -2.1646227893        2.6733042697       -0.6762151802
 C         -2.6360274194        1.3907535197       -0.4679835000
 C         -1.7688939994        0.4238607997        0.0241590000
 N         -2.2400783895       -0.8860544902        0.2347475202
 S         -3.5764368294       -1.0737353400        1.2381593403
 O         -3.6485339692       -0.0164418899        2.2203180302
 O         -3.4780551095       -2.4228884699        1.7512878905
 C         -4.9662157795       -0.9734314700        0.1304522405
 C         -5.9326537594       -0.0060965599        0.3250148705
 C         -7.0101164295        0.0486891701       -0.5455198294
 C         -7.1014210897       -0.8600911600       -1.5886886593
 C         -6.1235772998       -1.8273382501       -1.7684764793
 C         -5.0444752397       -1.8882931701       -0.9012778494
 H         -4.2660848598       -2.6261680602       -1.0027860294
 H         -6.1982672800       -2.5326092402       -2.5805079292
 H         -7.9399335998       -0.8150647600       -2.2655820792
 H         -7.7716439095        0.7992797702       -0.4072308694
 H         -5.8163110893        0.6818839502        1.1471684804
 H         -1.5142006395       -1.5354197002        0.5020091902
 H         -3.6598020095        1.1313172898       -0.6823834299
 H         -2.8343909993        3.4300529997       -1.0550170702
 H         -0.4967815492        4.0036710596       -0.5839652006
 C          1.4797338307        2.3291720795        0.3922915594
 H          1.5855869409        2.3311210596        1.4882216194
 C          1.9632490308        3.6607583794       -0.1439814908
 C          1.7656468010        4.9156886795        0.6512729091
 C          3.1344961709        4.3215790194        0.5169446390
 H          3.8601282809        4.8260604593       -0.1032024211
 H          3.5642802710        3.8237085095        1.3741490990
 H          1.2686324211        4.8297642697        1.6058534391
 H          1.5534214710        5.8330665095        0.1232079490
 H          1.8989722307        3.7199439193       -1.2247266208
 O          3.1742202008        0.7639633696        2.0685174794
