  62
        -98.94083680
 C         -2.5222534296       -1.2521695057        0.3503442244
 C         -2.7245808958       -0.4175595591       -0.7756799093
 C         -3.3775336462        0.8741163342       -0.5099320763
 C         -3.7379149498        1.1934144982        0.7453065661
 C         -4.3624172416        2.4936579385        1.1586029254
 C         -3.2979985483        3.5157750051        1.5803287326
 C         -2.1503385965        3.6678079084        0.5811856290
 H         -1.4874461174        4.4474453298        0.9635353824
 H         -1.5640161329        2.7451591731        0.5558622116
 C         -2.5909408293        4.0292912834       -0.8441782591
 H         -1.9311696137        4.8126531840       -1.2232866746
 H         -3.6034970989        4.4347751252       -0.8285161790
 C         -2.5218420778        2.8722582053       -1.8426579180
 H         -1.5363313218        2.4009639537       -1.7805135851
 H         -2.6221850387        3.2861322074       -2.8499118456
 C         -3.5951838445        1.7873116647       -1.6834843820
 H         -4.5819324185        2.2520042839       -1.6345413134
 H         -3.5580137804        1.1500604637       -2.5719821914
 H         -3.7860067253        4.4817562712        1.7229665252
 H         -2.8755487500        3.2023122035        2.5376731880
 H         -4.9510576866        2.8866431796        0.3319989216
 H         -5.0231907435        2.3018917154        2.0057425053
 O         -3.5336385646        0.3663775018        1.8014755212
 C         -2.9079223239       -0.8560067742        1.6349322256
 O         -2.7642113178       -1.5036020731        2.6908791116
 H         -0.2929999498       -1.1505973442       -1.3855697030
 C          0.2892918449       -1.5777684501       -0.5818549559
 C         -0.3396868381       -2.3894923011        0.3534163488
 C          0.4211305641       -2.9257620241        1.3844562140
 C          1.7752980522       -2.6508497764        1.4762482818
 C          2.3934609711       -1.8287602961        0.5505259271
 C          1.6387844286       -1.2868280250       -0.4814816860
 N          2.2525241637       -0.4036558604       -1.4043587446
 S          2.5606829281        1.1165173283       -0.7391777802
 O          1.5871986873        1.4527502522        0.2763876638
 O          2.6594263666        2.0243677625       -1.8612611803
 C          4.1686035812        0.9079056325       -0.0062188966
 C          4.3191356559        0.9880793377        1.3638921446
 C          5.5795052360        0.8008148775        1.9104267130
 C          6.6593475993        0.5375097423        1.0814233883
 C          6.4911540066        0.4622156923       -0.2935291143
 C          5.2343372484        0.6488126715       -0.8461616998
 H          5.0571290170        0.6027516695       -1.9076925665
 H          7.3334636235        0.2573615133       -0.9344175365
 H          7.6380732877        0.3900471226        1.5099380919
 H          5.7119696854        0.8585712016        2.9788764317
 H          3.4485140456        1.1879131927        1.9680690052
 H          1.6899781438       -0.2767098690       -2.2359868190
 H          3.4451271399       -1.6030681508        0.6216781983
 H          2.3536136666       -3.0740975858        2.2831672163
 H         -0.0610996473       -3.5425300149        2.1287923099
 C         -1.8287902861       -2.6057895191        0.2729482824
 H         -2.1394911355       -3.1390968390        1.1842513378
 C         -2.2703821598       -3.4370685445       -0.9248061882
 C         -1.3286891319       -3.9383493679       -1.9758499756
 C         -1.9151284695       -4.8936461076       -0.9837242495
 H         -2.6634266365       -5.5971227297       -1.3155902220
 H         -1.2622394810       -5.2729909908       -0.2119284084
 H         -0.2816975982       -3.6938046560       -1.8872709591
 H         -1.6851865434       -3.9609379298       -2.9945666362
 H         -3.2640698862       -3.1673699392       -1.2655029785
 O         -2.3869621345       -0.7140679922       -1.9528657481
