  62
        -98.93733930
 C         -0.5002899358       -1.8291800205       -0.0958658947
 C         -1.6157944547       -1.8349628768        0.7756046438
 C         -2.8230651137       -1.1315133094        0.3158259756
 C         -2.7962308871       -0.4790500997       -0.8610024810
 C         -3.9023817440        0.2303485129       -1.6127254544
 C         -5.1498223740        0.7278206347       -0.8846306946
 C         -4.9030369540        1.7906326601        0.1836660181
 H         -4.5357690576        2.6974589593       -0.3023857105
 H         -5.8638837867        2.0273381862        0.6463095585
 C         -3.9085087757        1.4080434037        1.2775368698
 H         -2.9048570803        1.3321263048        0.8554060508
 H         -3.8893384725        2.2188050139        2.0101827432
 C         -4.2239652050        0.1150548515        2.0274292178
 H         -5.2521065368        0.1395426083        2.3932874510
 H         -3.5609221887        0.0724860300        2.8951880390
 C         -4.0164794064       -1.1836079884        1.2255790407
 H         -4.9079582435       -1.4497393543        0.6612297669
 H         -3.8256623618       -1.9930978241        1.9359158656
 H         -5.6955454282       -0.1088808866       -0.4583401636
 H         -5.7956256622        1.1696032883       -1.6487371214
 H         -3.4248173073        1.0698107179       -2.1260032411
 H         -4.2209059348       -0.4646411248       -2.3984822219
 O         -1.6742179253       -0.4402567853       -1.6377790362
 C         -0.5232525020       -1.1453652206       -1.3106496972
 O          0.3764583511       -1.0737395283       -2.1685335318
 O         -1.6165990994       -2.4409425681        1.8819699392
 C          0.6842694170       -2.6934178355        0.2737825043
 C          1.9746712433       -1.9586054602        0.5541370225
 C          3.1122763453       -2.7048948003        0.8569403690
 C          4.3077847207       -2.0859001974        1.1633186348
 C          4.3987251129       -0.7059451456        1.1632001943
 C          3.2748341900        0.0503131447        0.8589006784
 C          2.0687072997       -0.5750569431        0.5669523256
 H          1.2036225554        0.0306643298        0.3363566078
 N          3.3433857536        1.4549928358        0.8676605239
 S          2.8164584678        2.2972889919       -0.4860117756
 O          2.9006685774        1.4926255883       -1.6796713321
 O          3.6124791035        3.5095451542       -0.4795163114
 C          1.1400253474        2.7581119119       -0.1216106000
 C          0.1272870747        2.4428349702       -1.0037410702
 C         -1.1495759852        2.9167533883       -0.7456641871
 C         -1.3911911946        3.6821367193        0.3842976132
 C         -0.3649509800        3.9731679282        1.2702225219
 C          0.9159916964        3.5142400298        1.0127161574
 H          1.7470023945        3.7365736298        1.6610339772
 H         -0.5587382868        4.5623810195        2.1518720858
 H         -2.3857910081        4.0531754452        0.5745415943
 H         -1.9479109982        2.6865730603       -1.4327946680
 H          0.3525248859        1.8303407779       -1.8640427658
 H          4.2419679123        1.8129020085        1.1620829565
 H          5.3310478013       -0.2131489816        1.3951386950
 H          5.1776437966       -2.6796898495        1.3987941866
 H          3.0516537516       -3.7812530522        0.8532581583
 H          0.3869772862       -3.1912680319        1.2102884334
 C          0.8992806504       -3.7620502821       -0.7882766099
 C          1.1789899224       -5.1846443526       -0.4090841437
 C         -0.1526544849       -4.8118091365       -0.9846532146
 H         -0.3937526493       -5.1196521384       -1.9909618303
 H         -1.0047815717       -4.7858371183       -0.3205105552
 H          1.8612593652       -5.7554528075       -1.0207355048
 H          1.2113905034       -5.4310424278        0.6418306430
 H          1.3767469987       -3.3697651591       -1.6792646838
