  62
        -98.93656377
 C         -2.4737122456       -1.2854314492        0.2214312363
 C         -2.6594448936       -0.4119708701       -0.8768146679
 C         -3.5648333943        0.7234340338       -0.6454589673
 C         -4.1579383311        0.8713633055        0.5528119832
 C         -5.1502495607        1.9354207563        0.9419982522
 C         -4.6232186403        3.3832194400        0.9708564292
 C         -4.8520904837        4.1658236501       -0.3281851712
 H         -5.6961921323        3.7244107191       -0.8592852828
 H         -5.1409421632        5.1879646433       -0.0752064327
 C         -3.6484089076        4.2621480702       -1.2705119656
 H         -4.0099242873        4.6136094810       -2.2391792118
 H         -2.9542366290        5.0132055549       -0.8865197271
 C         -2.8568102707        2.9705033891       -1.4771684909
 H         -2.2413471174        2.7714366570       -0.5961790270
 H         -2.1638729553        3.1234203819       -2.3067801279
 C         -3.7198837033        1.7239988910       -1.7535001280
 H         -4.7658274629        1.9996679683       -1.8788223454
 H         -3.3796611975        1.2312871567       -2.6664026689
 H         -5.1536874160        3.8958359655        1.7749563895
 H         -3.5655590346        3.3805449641        1.2339371566
 H         -6.0083485841        1.8761701828        0.2687080143
 H         -5.4918633324        1.6611049650        1.9422517083
 O         -3.9448367871        0.0089739525        1.5859520705
 C         -3.0912395707       -1.0738547715        1.4527477304
 O         -2.9647749547       -1.7607660191        2.4881851935
 H         -0.2193649610       -0.3874808771        1.0499787121
 C          0.3800954064       -0.9285294050        0.3265015122
 C         -0.1597464707       -2.0480827454       -0.2945093319
 C          0.6293425226       -2.7420270398       -1.2026504106
 C          1.9126720112       -2.3104712356       -1.4909322699
 C          2.4365313454       -1.1834434624       -0.8856018955
 C          1.6608831391       -0.4878070349        0.0326080546
 N          2.1829792124        0.6663508104        0.6476453020
 S          3.6405022634        0.5084985033        1.4706273694
 O          3.8075544607       -0.8276701311        1.9948829975
 O          3.6469264107        1.5838941836        2.4386967752
 C          4.8736768963        0.8358881229        0.2293565106
 C          4.8089691386        2.0344706953       -0.4539706209
 C          5.7673889802        2.3074013059       -1.4168663978
 C          6.7700292624        1.3844830404       -1.6757754435
 C          6.8228961353        0.1873429044       -0.9783787128
 C          5.8662249393       -0.0928875018       -0.0150081642
 H          5.8623764170       -1.0126183200        0.5477398517
 H          7.6031793549       -0.5285028406       -1.1809809886
 H          7.5147207236        1.5998486562       -2.4256825054
 H          5.7292783530        3.2369890989       -1.9615984155
 H          4.0156255619        2.7248276327       -0.2203853801
 H          1.5112972798        1.1500712001        1.2263128431
 H          3.4314424772       -0.8385975262       -1.1151795813
 H          2.5120076907       -2.8578379904       -2.2021980223
 H          0.2380446141       -3.6214452410       -1.6870763081
 C         -1.5551169477       -2.4846859642        0.0844539246
 H         -1.5033346648       -2.9443946675        1.0832611583
 C         -2.1538297847       -3.4867920195       -0.8819432192
 C         -1.9222989407       -4.9551576324       -0.6941306806
 C         -3.2696496613       -4.3661854438       -0.4063206205
 H         -4.0837026239       -4.5789745219       -1.0827297357
 H         -3.5754144590       -4.2621906639        0.6250227964
 H         -1.8145526639       -5.5767976949       -1.5702059938
 H         -1.3163663449       -5.2635057089        0.1446120290
 H         -2.2168046810       -3.1002492325       -1.8925425658
 O         -2.1043688346       -0.5717670551       -1.9940217732
