  62
        -98.93832048
 C          2.2271373270        1.1529850389        0.2073221626
 C          2.3459329931        0.0347410660       -0.6496687788
 C          3.2208749155       -1.0597942188       -0.1855913026
 C          3.8191629480       -0.9635031331        1.0136217793
 C          4.7652866048       -1.9405476690        1.6550749829
 C          6.2257638221       -1.5747605634        1.3400100246
 C          6.7707472864       -2.1632349588        0.0393662954
 H          7.7578330724       -1.7260257037       -0.1270529305
 H          6.9053249036       -3.2400049477        0.1613249647
 C          5.9080399549       -1.9157874230       -1.2005465658
 H          5.5509890001       -0.8843912916       -1.2001641881
 H          6.5423344698       -2.0383654335       -2.0805101791
 C          4.7168456922       -2.8795169726       -1.3086131683
 H          4.8450663129       -3.6896371238       -0.5911414469
 H          4.7130267936       -3.3416449694       -2.2981115298
 C          3.3364757034       -2.2350239398       -1.1186432553
 H          2.9758176682       -1.8610131313       -2.0822489496
 H          2.6221832073       -3.0024865463       -0.7994906186
 H          6.2984316314       -0.4846341967        1.3106455943
 H          6.8578636169       -1.9223496065        2.1595387153
 H          4.6104549946       -1.8568863575        2.7328718024
 H          4.5374131654       -2.9569094450        1.3480048818
 O          3.6652271585        0.1237790228        1.8179113098
 C          2.8798120246        1.1945758044        1.4438492464
 O          2.8429722414        2.1186110860        2.2803033690
 H         -0.2972088577        0.7382116737       -1.5221698854
 C         -0.7889722274        1.1608920997       -0.6589692799
 C         -0.0867397694        2.0237999409        0.1702906231
 C         -0.7228554487        2.5227926484        1.3014277529
 C         -2.0283378018        2.1666522676        1.5904820635
 C         -2.7226540900        1.3014053602        0.7635685746
 C         -2.0910280223        0.7878599462       -0.3610787966
 N         -2.7806641797       -0.1145640981       -1.1954544064
 S         -3.3805584792       -1.5009833886       -0.4560460249
 O         -2.6045251669       -1.8600497182        0.7096581264
 O         -3.4628223593       -2.4932759098       -1.5058727213
 C         -5.0308939002       -1.0363181116        0.0265031697
 C         -5.8898941687       -0.5788315184       -0.9537333944
 C         -7.1795060849       -0.2179728645       -0.5977634191
 C         -7.5869810079       -0.3228006567        0.7239889294
 C         -6.7137266117       -0.7872645037        1.6955519276
 C         -5.4217485573       -1.1490246998        1.3462448552
 H         -4.7055453017       -1.5093180214        2.0676015682
 H         -7.0320200958       -0.8685251277        2.7224712786
 H         -8.5911714155       -0.0410198820        0.9987708306
 H         -7.8616117173        0.1433298058       -1.3503792653
 H         -5.5337744363       -0.5165634566       -1.9684000548
 H         -2.2466194241       -0.3707035042       -2.0148324312
 H         -3.7364580033        1.0123160551        0.9882527582
 H         -2.5090369577        2.5627837595        2.4720052665
 H         -0.1758764359        3.1762532158        1.9658751027
 C          1.3578985608        2.3621345305       -0.1109056369
 H          1.6639009202        3.1390380069        0.6021091386
 C          1.5628534752        2.8944494177       -1.5148442201
 C          1.1396942201        4.2976602128       -1.8249447523
 C          2.5962060023        3.9528957185       -1.7505006108
 H          3.1680388331        3.9187346022       -2.6657142979
 H          3.1604759903        4.2996862863       -0.8968153170
 H          0.7087730663        4.5033998137       -2.7926204620
 H          0.7158842976        4.8799518335       -1.0208137276
 H          1.4380631021        2.1469004102       -2.2865467042
 O          1.7657827396       -0.0706751187       -1.7649684778
