  62
        -98.93328177
 C         -2.2780008958        0.2790369686       -0.1767024057
 C         -3.4361520511        0.6957259330       -0.8742186766
 C         -4.6746690701       -0.0352079213       -0.5686305720
 C         -4.6359475064       -1.0436197830        0.3216236497
 C         -5.8245050902       -1.8294398994        0.7982548317
 C         -6.6240337490       -1.0025482854        1.8255915746
 C         -8.0287195732       -0.6119920671        1.3653867335
 H         -8.6802300306       -1.4856902554        1.4338814580
 H         -8.4058704505        0.1359864323        2.0660780072
 C         -8.1352603824       -0.0590450714       -0.0590733465
 H         -8.1232445471       -0.8825862410       -0.7745194067
 H         -9.1164544002        0.4127398330       -0.1439824803
 C         -7.0628751221        0.9597887350       -0.4659328428
 H         -6.6480891067        1.4544080983        0.4126266660
 H         -7.5411601895        1.7336714131       -1.0697898734
 C         -5.9149092658        0.3780574455       -1.3120720257
 H         -6.2861607997       -0.4654847733       -1.9006001801
 H         -5.5757797061        1.1449072379       -2.0148051508
 H         -6.0521186331       -0.1019663335        2.0588775554
 H         -6.7135414900       -1.5661973713        2.7553999931
 H         -5.4464474281       -2.7430920929        1.2571539228
 H         -6.4518593295       -2.0975779406       -0.0488391349
 O         -3.4992571269       -1.4227568735        0.9624747896
 C         -2.2932775082       -0.7767789866        0.7338396193
 O         -1.3355063039       -1.2301490688        1.3881598336
 O         -3.4323616472        1.6321406162       -1.7188851846
 C         -0.9675000465        0.9985556515       -0.4352993815
 C          0.0778525596        0.0306609291       -0.9317416249
 C         -0.2379447232       -0.8134739400       -1.9942125482
 C          0.6923490080       -1.7062553286       -2.4882088413
 C          1.9641522384       -1.7667264909       -1.9454254226
 C          2.2900741918       -0.9291990234       -0.8861887695
 C          1.3493353084       -0.0381845149       -0.3865745022
 H          1.6320629724        0.5983694445        0.4347654323
 N          3.5638826965       -0.9816746523       -0.2981751611
 S          4.2478695342        0.4494402655        0.2780302589
 O          3.7577056892        0.7053127158        1.6088242548
 O          4.0632632450        1.5101057329       -0.6867494177
 C          5.9661313434       -0.0240045458        0.3521593031
 C          6.4109936668       -0.7409314152        1.4469795998
 C          7.7385416338       -1.1356652606        1.4945903561
 C          8.5943849431       -0.8094189332        0.4528706895
 C          8.1340899542       -0.0880135012       -0.6383821290
 C          6.8071945355        0.3089683415       -0.6929552470
 H          6.4072769718        0.8787704203       -1.5162672158
 H          8.8026876926        0.1671774213       -1.4446773474
 H          9.6275427852       -1.1163647583        0.4937561493
 H          8.1005945988       -1.6939668732        2.3428128869
 H          5.7116461355       -0.9631201283        2.2362210946
 H          4.2249973197       -1.5255807680       -0.8355048863
 H          2.6931653351       -2.4619702088       -2.3331327406
 H          0.4293403874       -2.3565937612       -3.3090413395
 H         -1.2288384076       -0.7596579372       -2.4249556955
 H         -1.1797980490        1.7125079942       -1.2459384602
 C         -0.5386286116        1.7746309011        0.7917719026
 C          0.3306830096        2.9871103767        0.6508469661
 C         -1.1102006635        3.1382133862        1.0334486037
 H         -1.3480798989        3.4254703835        2.0466388717
 H         -1.7970890009        3.5253035894        0.2949682532
 H          1.0900144758        3.1643382926        1.3982815108
 H          0.6288094380        3.2744505066       -0.3464729533
 H         -0.3836224724        1.1364127133        1.6554544704
