  62
        -98.94100817
 C          1.6862207422        0.7280923327        0.6706503271
 C          2.6625177378        1.1914637670       -0.2464552030
 C          4.0196724671        0.6534714528       -0.0586037801
 C          4.2621885593       -0.1980890380        0.9540957617
 C          5.5815808972       -0.8614731349        1.2214994191
 C          5.6771043661       -2.2153704836        0.5039664633
 C          5.2869364376       -2.1604541999       -0.9730996573
 H          4.2241398227       -1.9205571238       -1.0524566992
 H          5.4207532345       -3.1640713026       -1.3824955385
 C          6.0957607914       -1.1564085812       -1.8062574358
 H          6.3904040637       -1.6350187012       -2.7426355487
 H          7.0115277312       -0.8891587435       -1.2776709668
 C          5.3358425352        0.1184578546       -2.1777119543
 H          4.3746550594       -0.1445526315       -2.6268735936
 H          5.9153532725        0.6504838968       -2.9369236912
 C          5.0774533962        1.1006600387       -1.0280542537
 H          4.7073307124        2.0328633448       -1.4650373248
 H          6.0136406362        1.3132343668       -0.5078705705
 H          5.0128247771       -2.9215569429        1.0074048160
 H          6.6998750038       -2.5846743262        0.5983811879
 H          6.3857631808       -0.2060906151        0.8928527669
 H          5.6735436610       -1.0229242882        2.2969037019
 O          3.3060358725       -0.5961515195        1.8317318210
 C          1.9997096338       -0.1556699189        1.7049334627
 O          1.2184835179       -0.6113301842        2.5649547682
 H         -2.3434710363        1.5966387274        0.0237555670
 C         -1.8747793076        0.9326638444       -0.6834516885
 C         -0.5242757663        0.6273848900       -0.5721759438
 C          0.0386589159       -0.2209411974       -1.5164290862
 C         -0.7265304946       -0.7335108849       -2.5496412668
 C         -2.0774848867       -0.4517826015       -2.6367966084
 C         -2.6563254844        0.3811110517       -1.6870509791
 N         -4.0375517574        0.6475363657       -1.6891700868
 S         -4.8454405899        0.4168656110       -0.2349934213
 O         -6.2176373055        0.1585371620       -0.6101680204
 O         -4.6286861830        1.5451479501        0.6329662973
 C         -4.0888041159       -1.0506095144        0.4416215332
 C         -4.4134504673       -2.2685701450       -0.1231993396
 C         -3.7539444332       -3.4060622622        0.3122628826
 C         -2.7697723645       -3.3043694098        1.2842561845
 C         -2.4566689862       -2.0758802166        1.8450299582
 C         -3.1265714799       -0.9379915293        1.4244704195
 H         -2.9140596141        0.0298868152        1.8477154116
 H         -1.6801956599       -1.9909336583        2.5897660915
 H         -2.2415841458       -4.1866770858        1.6099328304
 H         -3.9990370811       -4.3658864953       -0.1131890813
 H         -5.1814725261       -2.3069135341       -0.8787298304
 H         -4.5402159223        0.2123705086       -2.4498201905
 H         -2.6775376701       -0.8731783268       -3.4285556193
 H         -0.2669670662       -1.3779892203       -3.2836094437
 H          1.0855893119       -0.4753239992       -1.4442354968
 C          0.2477546592        1.1935450944        0.5988898932
 H         -0.2324722333        0.8123587656        1.5128659401
 C          0.1640171728        2.7109916088        0.6156210799
 C         -0.9000936709        3.4155744990        1.3996854739
 C          0.5214619415        3.4456787801        1.8720528037
 H          1.0786822779        4.3667516100        1.7922858238
 H          0.7830863227        2.8508592433        2.7357935957
 H         -1.6045244843        2.8198062443        1.9617061934
 H         -1.3269356116        4.3183519610        0.9894170352
 H          0.4777139003        3.1558737711       -0.3210070051
 O          2.4246035433        2.0005689748       -1.1802547699
