  62
        -98.93576695
 C         -1.9470886150       -1.5990803451        0.0226796772
 C         -1.6404692449       -0.2910603999       -0.4267298923
 C         -2.7824843632        0.6370843658       -0.5433522049
 C         -4.0218548210        0.2104313567       -0.2502017344
 C         -5.3240391380        0.9626888594       -0.3646878266
 C         -5.3543228836        2.4045695270        0.1620287307
 C         -4.4225044429        2.6813047011        1.3506563990
 H         -4.0502501224        1.7418145827        1.7629740991
 H         -4.9915306011        3.1786361837        2.1385690171
 C         -3.2422199044        3.5835763998        0.9835298567
 H         -2.8461013777        4.0305279435        1.8986143829
 H         -3.6104627717        4.3982512590        0.3559663543
 C         -2.0752428381        2.8949900286        0.2755022602
 H         -1.5413937262        2.2486788248        0.9775159625
 H         -1.3765364014        3.6725213434       -0.0394678972
 C         -2.4439021572        2.0425026761       -0.9493074477
 H         -1.5557998223        1.9660851642       -1.5822134991
 H         -3.2467763552        2.5003419836       -1.5223386975
 H         -6.3855981863        2.6138418724        0.4512630931
 H         -5.1100934213        3.0926884273       -0.6461590354
 H         -5.6284067020        0.9586952938       -1.4153899970
 H         -6.0504734035        0.3574662918        0.1829170787
 O         -4.2692338513       -1.0573399632        0.1870581119
 C         -3.2483548756       -1.9747120582        0.3614433800
 O         -3.6208484191       -3.0741633036        0.8187433412
 H          1.7034106601       -2.3365862903       -0.7353003480
 C          1.5719709301       -1.9419787642        0.2599284126
 C          0.3356843478       -2.0236529637        0.8790462127
 C          0.1931659554       -1.4775849268        2.1518390356
 C          1.2564079643       -0.8581725051        2.7798586214
 C          2.4889122958       -0.7739313642        2.1556547226
 C          2.6412908186       -1.3167308510        0.8877023675
 N          3.8890482976       -1.2390614792        0.2397199106
 S          4.6192393459        0.2615060041        0.1041891965
 O          5.6310148772        0.0902615279       -0.9148961034
 O          5.0921469919        0.6789393356        1.4005573238
 C          3.3466938558        1.3666236694       -0.4732548575
 C          3.0216251750        1.3419945830       -1.8143664742
 C          2.0132983563        2.1711322821       -2.2745067719
 C          1.3469912736        3.0018244720       -1.3881819298
 C          1.6806375876        3.0099396259       -0.0437730395
 C          2.6887020513        2.1828270726        0.4227240729
 H          2.9798530243        2.1631208072        1.4602375700
 H          1.1561574175        3.6533440451        0.6445685272
 H          0.5618544552        3.6473042822       -1.7502128826
 H          1.7457544998        2.1631214822       -3.3191737766
 H          3.5701790828        0.6896456299       -2.4750845007
 H          3.8985199957       -1.7013257145       -0.6585067309
 H          3.3284386332       -0.2893095025        2.6271929200
 H          1.1266125198       -0.4350459180        3.7648399437
 H         -0.7723697642       -1.5331970797        2.6373496814
 C         -0.8681331115       -2.6503902225        0.2209220076
 H         -1.3023500869       -3.3753432307        0.9291109214
 C         -0.5256314854       -3.4295725987       -1.0406998506
 C         -1.5561956649       -3.6708683208       -2.1017158040
 C         -0.3945038504       -2.7667842857       -2.3782430211
 H          0.3744070873       -3.1170397694       -3.0519231882
 H         -0.5684533773       -1.7034990127       -2.4269300831
 H         -2.5317953854       -3.2282950576       -1.9628499605
 H         -1.5822935190       -4.6392992545       -2.5784981202
 H          0.1502630725       -4.2544135503       -0.8347478622
 O         -0.4845194426        0.0955528056       -0.7321177670
