  62
        -98.93920154
 C         -2.6270373966       -1.2632963868        0.3861758670
 C         -2.9766917400       -0.1455036350        1.1865583078
 C         -4.1352072871        0.6401971128        0.7459220446
 C         -4.7919223978        0.2683154665       -0.3679509577
 C         -5.9611749855        0.9992714836       -0.9602138288
 C         -5.5032473663        2.0457603858       -1.9855353573
 C         -4.3826177644        2.9554535072       -1.4818239382
 H         -3.4789845706        2.3601999547       -1.3295182922
 H         -4.1631176033        3.6722278634       -2.2761368013
 C         -4.7127189779        3.7127202056       -0.1879514216
 H         -5.7911216614        3.7166233671       -0.0251170920
 H         -4.3976803179        4.7522471321       -0.3006881474
 C         -4.0144867476        3.1699150300        1.0604951995
 H         -2.9420131610        3.0752751106        0.8693392324
 H         -4.1388071393        3.9006190100        1.8643800910
 C         -4.5324804228        1.8236495903        1.5823276537
 H         -4.0879745566        1.6565230072        2.5679379671
 H         -5.6175220544        1.8672619181        1.6977358103
 H         -5.1457183747        1.5247808619       -2.8765630822
 H         -6.3658377404        2.6515920169       -2.2687911821
 H         -6.5236168067        1.4794284815       -0.1617766345
 H         -6.6037807000        0.2720185403       -1.4592135861
 O         -4.4296029346       -0.8051088173       -1.1115461571
 C         -3.3329233398       -1.5905230390       -0.7725766486
 O         -3.1213421908       -2.5204670413       -1.5706257255
 O         -2.3493908047        0.1713688370        2.2344175557
 C         -1.4308755998       -2.0772226527        0.8486659585
 C         -0.1723541470       -1.5346531104        0.2213205821
 C         -0.0249796050       -1.4719720634       -1.1616262192
 C          1.1284101891       -0.9504986703       -1.7174853499
 C          2.1508089032       -0.4750192743       -0.9135147339
 C          2.0026766288       -0.5084215852        0.4659654985
 C          0.8476975136       -1.0455543026        1.0227666177
 H          0.7303975678       -1.0604672945        2.0979721663
 N          3.0304395884       -0.0287243627        1.2913215322
 S          3.8203392521        1.3954912535        0.8892488225
 O          4.3569844823        1.8875663154        2.1389805024
 O          2.9600943328        2.2964465446        0.1583169836
 C          5.1655512944        0.8518050650       -0.1439001990
 C          5.9973648364       -0.1398639966        0.3382891528
 C          7.0532323541       -0.5693890992       -0.4494171693
 C          7.2609475282       -0.0011284373       -1.6974949205
 C          6.4201661194        0.9969531936       -2.1653229219
 C          5.3612248466        1.4303897229       -1.3825310090
 H          4.6792395407        2.1999983485       -1.7081432462
 H          6.5836614604        1.4385295987       -3.1352731865
 H          8.0830160360       -0.3378573058       -2.3091318323
 H          7.7094653450       -1.3450758311       -0.0889086458
 H          5.8045451565       -0.5535338610        1.3139514216
 H          2.8147665644       -0.0595535919        2.2772040197
 H          3.0471229752       -0.0621500110       -1.3461758216
 H          1.2339823287       -0.9119680790       -2.7911913942
 H         -0.8266171648       -1.8319159621       -1.7891107607
 H         -1.3686451763       -1.8808551447        1.9309686887
 C         -1.6084091909       -3.5785571103        0.6703900824
 C         -0.7435740917       -4.4227373321       -0.2126685338
 C         -0.6065961961       -4.5181174882        1.2750891871
 H         -0.9627895276       -5.4046322610        1.7774092249
 H          0.2727638293       -4.0788941655        1.7223876337
 H         -1.2188821804       -5.2320738644       -0.7454428090
 H          0.0486615374       -3.9442827432       -0.7659414708
 H         -2.6503394058       -3.8732765701        0.7376172959
