  62
        -98.93764155
 C         -2.3823471548       -0.2067105101        0.3058615928
 C         -1.8151721083        0.3327688585       -0.8752328479
 C         -1.7039469756        1.7971173673       -0.9165715803
 C         -2.0039083452        2.5208937527        0.1760539014
 C         -1.9208337335        4.0180539666        0.3004386797
 C         -0.5060794579        4.5332014096        0.5993467563
 C          0.4545838294        4.5218452350       -0.5903829118
 H         -0.0214269535        5.0044656214       -1.4452511723
 H          1.3169482937        5.1296304939       -0.3089213935
 C          0.9502617377        3.1256236247       -0.9923354470
 H          2.0284178182        3.1612524100       -1.1709413372
 H          0.7930178611        2.4288793205       -0.1652126210
 C          0.3016902728        2.5625747874       -2.2560568553
 H          0.5566570033        3.1954409824       -3.1094845060
 H          0.7181019397        1.5701221681       -2.4355079412
 C         -1.2252420382        2.4355010659       -2.1876687971
 H         -1.6859550204        3.4171454723       -2.3017432009
 H         -1.5497254750        1.7993304610       -3.0151987848
 H         -0.0816070588        3.9363208806        1.4110282179
 H         -0.6009731979        5.5623416726        0.9546245100
 H         -2.2963096693        4.4865301024       -0.6101302254
 H         -2.5734349085        4.2973921161        1.1306260006
 O         -2.4471299434        1.9543263358        1.3301393837
 C         -2.6439632111        0.5893544749        1.4207556171
 O         -3.0588610571        0.2035826927        2.5367460272
 H         -0.6579808234       -1.2888738835        2.0937198801
 C         -0.3131141089       -1.9307165218        1.2914630385
 C         -1.2220840344       -2.3371352645        0.3148624120
 C         -0.7454470757       -3.1505063208       -0.7044038864
 C          0.5906269875       -3.5200593116       -0.7503393618
 C          1.4948732372       -3.0545785910        0.1854669484
 C          1.0293553305       -2.2442321347        1.2123101259
 N          1.9706779771       -1.6423410284        2.1026413548
 S          2.2474791710       -0.0430566014        1.6190784499
 O          3.2009569792        0.4952556879        2.5661713875
 O          1.0110080215        0.7004633825        1.4967844459
 C          3.0077681192       -0.2655509536        0.0299738472
 C          4.3833060398       -0.3689616522       -0.0397412594
 C          4.9760245316       -0.5943118515       -1.2716643515
 C          4.1856360360       -0.7208428414       -2.4043978418
 C          2.8058853396       -0.6186553841       -2.3158214335
 C          2.2057837400       -0.3888139753       -1.0874832758
 H          1.1343177915       -0.3058673467       -0.9866677611
 H          2.1859722819       -0.7213327180       -3.1922992477
 H          4.6460524949       -0.9004329848       -3.3631071037
 H          6.0487092114       -0.6738660359       -1.3440601862
 H          4.9527429607       -0.2639654270        0.8690933959
 H          1.6394884211       -1.6178258847        3.0588467328
 H          2.5441468790       -3.2932319264        0.1276184651
 H          0.9348802974       -4.1527329104       -1.5536980769
 H         -1.3940474194       -3.4824330805       -1.4944358062
 C         -2.5879938025       -1.7126898949        0.4655020966
 H         -2.8751812382       -1.8447799699        1.5218538613
 C         -3.7898023751       -2.1733556452       -0.3419449832
 C         -3.8055786305       -2.4578555721       -1.8115372626
 C         -4.0016072961       -3.5753147420       -0.8300952599
 H         -4.9921725546       -3.9950037526       -0.7343464956
 H         -3.2114212523       -4.2932996939       -0.6830419022
 H         -4.6649519209       -2.1172052827       -2.3714743871
 H         -2.8812514766       -2.3647234291       -2.3563747139
 H         -4.6762849773       -1.6702796419        0.0401217093
 O         -1.4269366975       -0.3581252849       -1.8500825073
