  62
        -98.94366287
 C         -2.6153419465       -0.1831363448       -0.2453231947
 C         -2.1702978796       -0.9774221598        0.8406596961
 C         -1.6950919973       -2.3280836266        0.4966315177
 C         -1.6685195884       -2.7184130230       -0.7892753687
 C         -1.1684980629       -4.0467593102       -1.2785076594
 C          0.3236116200       -3.9957498547       -1.6315312291
 C          1.2032302471       -3.3869988109       -0.5387585839
 H          0.9806204181       -2.3208729855       -0.4464997060
 H          2.2391627329       -3.4618231419       -0.8789868688
 C          1.0685757241       -4.0561472052        0.8358556041
 H          2.0674687142       -4.1885575466        1.2569253589
 H          0.6266562090       -5.0478235805        0.7247943329
 C          0.2629039642       -3.2495071855        1.8561556810
 H          0.6355748711       -2.2221379808        1.8833830783
 H          0.4320931683       -3.6858024175        2.8449021720
 C         -1.2539771715       -3.2116443259        1.6296603504
 H         -1.7118288162       -2.7922994140        2.5306009870
 H         -1.6317365307       -4.2278235195        1.4922668502
 H          0.4453143322       -3.3955879786       -2.5362286197
 H          0.6597286551       -5.0123522416       -1.8464018517
 H         -1.3447504206       -4.7979030155       -0.5106680753
 H         -1.7338997131       -4.3143276959       -2.1731951558
 O         -2.0835030360       -1.9232554846       -1.8087901563
 C         -2.5458342784       -0.6437399617       -1.5627648009
 O         -2.8866987352       -0.0188916437       -2.5895250407
 H         -0.5339999372        0.9411542502        0.7655966114
 C         -0.6827401330        1.8752234624        0.2462386672
 C         -1.9353058448        2.2129189444       -0.2398274322
 C         -2.0914464922        3.4390173599       -0.8773781895
 C         -1.0131438765        4.2894839315       -1.0418729577
 C          0.2480357529        3.9202443408       -0.6086257257
 C          0.4118402567        2.7004308469        0.0362590224
 N          1.6718688505        2.2636995262        0.4772168786
 S          1.9920378108        0.6100834885        0.2888460683
 O          1.3850911278        0.1282127765       -0.9307892285
 O          1.6356992070       -0.0681795684        1.5081779303
 C          3.7677595461        0.6315993789        0.1223858996
 C          4.5493223770        0.6336587288        1.2621923367
 C          5.9278728469        0.6845949637        1.1283924477
 C          6.4984164722        0.7332830426       -0.1349053354
 C          5.7011331445        0.7280180938       -1.2697463384
 C          4.3217984953        0.6783806535       -1.1428855947
 H          3.6612538289        0.6619106698       -1.9952180549
 H          6.1468223898        0.7615732849       -2.2508118706
 H          7.5714402683        0.7721163753       -0.2362515738
 H          6.5508180808        0.6847738736        2.0081495906
 H          4.0598063622        0.5849039651        2.2209199391
 H          2.4316059618        2.8376561990        0.1371689114
 H          1.0979154307        4.5655766499       -0.7711947215
 H         -1.1489832918        5.2378103750       -1.5391112398
 H         -3.0612128427        3.7140202799       -1.2638572243
 C         -3.0959300586        1.2521957372       -0.1048509002
 H         -3.7653993743        1.4297157305       -0.9595144152
 C         -3.8682136956        1.5315225312        1.1694925801
 C         -4.9337515402        2.5846830266        1.1716142495
 C         -5.3106404143        1.1367613912        1.2558185727
 H         -5.6796602447        0.7462012806        2.1918309116
 H         -5.7514390481        0.6725008601        0.3853331964
 H         -5.1341948288        3.1024969320        0.2461424346
 H         -5.0461382385        3.1972678415        2.0527314677
 H         -3.2693999661        1.4169092580        2.0635231571
 O         -2.1684872726       -0.6073141489        2.0451552071
