  62
        -98.94786916
 C          0.7604650103        1.2459301237        0.5894299894
 C          1.1675481848        0.6935936524       -0.6489625615
 C          2.1164842719       -0.4231367472       -0.5625381532
 C          2.4825013117       -0.8980964797        0.6412838161
 C          3.4702614825       -2.0045094225        0.8948771040
 C          4.9332422665       -1.5378559824        0.8862819475
 C          5.5022147964       -1.2004249737       -0.4927007017
 H          6.5842381123       -1.1095524717       -0.3779343057
 H          5.3162770094       -2.0305108412       -1.1746100030
 C          4.9614107915        0.1004920424       -1.1025543030
 H          4.4992287928        0.7059159886       -0.3192315034
 H          5.7909879893        0.6839178498       -1.5085685924
 C          3.9515572766       -0.0998103346       -2.2329022174
 H          4.4414792625       -0.5855978346       -3.0795399820
 H          3.6071986685        0.8838119544       -2.5618668021
 C          2.7204889520       -0.9266239731       -1.8380645912
 H          2.9895713794       -1.9772685375       -1.7444494009
 H          1.9686476947       -0.8213639682       -2.6232693372
 H          5.5341722546       -2.3429963255        1.3154736118
 H          5.0274722433       -0.6689737672        1.5419166541
 H          3.2454249785       -2.4034683921        1.8860957570
 H          3.3384947800       -2.7960370241        0.1583215497
 O          1.9770342282       -0.4100956495        1.8068775363
 C          1.1388789783        0.6931038344        1.8113692801
 O          0.7999219870        1.0776460332        2.9507969391
 O          0.7768544361        1.1210845049       -1.7653451405
 C         -0.1094567228        2.4878961452        0.6102102356
 C         -1.3809798988        2.2783937929       -0.1743544521
 C         -1.9403378725        3.2602135483       -0.9826405027
 C         -3.1256966892        3.0202051650       -1.6552933605
 C         -3.7769111073        1.8072723796       -1.5341321633
 C         -3.2261368416        0.8186244736       -0.7247728625
 C         -2.0404699719        1.0623278750       -0.0512538791
 H         -1.6222164155        0.2985715983        0.5888886682
 N         -3.8437445312       -0.4299468651       -0.6146297047
 S         -3.4589014183       -1.5532289255        0.5424034604
 O         -4.4713619870       -2.5766958698        0.3836462361
 O         -3.3647523537       -0.9720512223        1.8619279995
 C         -1.8912928137       -2.2278938399        0.0378385821
 C         -1.0076101948       -2.6488048740        1.0110555549
 C          0.1667662948       -3.2748797969        0.6268724046
 C          0.4373991349       -3.4632042384       -0.7190097904
 C         -0.4503734827       -3.0179769785       -1.6852092199
 C         -1.6307225088       -2.3998409622       -1.3066342559
 H         -2.3448941345       -2.0496935684       -2.0331937865
 H         -0.2294765643       -3.1554402820       -2.7313584061
 H          1.3439884293       -3.9651165095       -1.0169878030
 H          0.8601206603       -3.6142825090        1.3794658630
 H         -1.2516345980       -2.4731387288        2.0476271063
 H         -4.7623242568       -0.5299620312       -1.0157963760
 H         -4.6997933875        1.6197355579       -2.0608002506
 H         -3.5492199885        3.7899650304       -2.2823458583
 H         -1.4480778002        4.2130171232       -1.0874970526
 H         -0.3869746753        2.6498568833        1.6631504282
 C          0.6994980929        3.6773915138        0.1296769367
 C          0.4512189382        5.0453435818        0.6881047851
 C          1.6942692481        4.2972234432        1.0627681645
 H          2.6402449866        4.6310167430        0.6632535124
 H          1.7631025179        3.8813398637        2.0579797273
 H          0.5474157573        5.8969380528        0.0313989277
 H         -0.3204491839        5.1482463542        1.4362133392
 H          0.9795077657        3.5919946803       -0.9142675056
