  62
        -98.93916490
 C         -1.4657369540       -1.4044328230        0.2430460439
 C         -2.1312844109       -0.4626230307        1.0692518437
 C         -3.1777674618        0.3375000203        0.4251964108
 C         -3.4427431699        0.1598191104       -0.8813175876
 C         -4.4755769082        0.9043155062       -1.6828058711
 C         -3.9883192763        2.2619730082       -2.2086002741
 C         -3.8445181767        3.3593042296       -1.1525829975
 H         -3.7105275301        4.3012593825       -1.6883283084
 H         -4.7720446550        3.4379781878       -0.5846607158
 C         -2.6637671065        3.1676777424       -0.1895605320
 H         -1.9601194373        2.4470925503       -0.6140984012
 H         -2.1264241290        4.1127571143       -0.0829684890
 C         -3.0599297953        2.7068224715        1.2133687665
 H         -3.6511017681        3.4848219411        1.7010256100
 H         -2.1479853004        2.5559225625        1.7955079457
 C         -3.8547619608        1.3952368854        1.2431382233
 H         -3.8955583488        1.0425552042        2.2764033940
 H         -4.8718663220        1.5599515025        0.8887608156
 H         -3.0316287316        2.1165959440       -2.7165174673
 H         -4.7105615422        2.6000797485       -2.9553496708
 H         -4.7229403128        0.2725767125       -2.5387167589
 H         -5.3755204908        1.0455327083       -1.0837329852
 O         -2.7792315324       -0.7491673848       -1.6436930007
 C         -1.7575485254       -1.5325900619       -1.1157613848
 O         -1.2078470685       -2.2705480194       -1.9542483742
 O         -1.8515846186       -0.2911387869        2.2839950964
 C         -0.3456011737       -2.2051493900        0.8762164980
 C          0.9283429673       -2.1046521445        0.0729000252
 C          1.8366977591       -3.1491331388       -0.0503431975
 C          3.0319844778       -2.9731220533       -0.7273858518
 C          3.3499187185       -1.7560690094       -1.3020868269
 C          2.4420392109       -0.7126165588       -1.2014920082
 C          1.2546397107       -0.8856726617       -0.5093099743
 H          0.5607047648       -0.0574421151       -0.4247953226
 N          2.7764083711        0.5490011088       -1.7627798786
 S          3.7063830509        1.4891234910       -0.7306596723
 O          3.8356299978        2.7808695675       -1.3654883039
 O          4.9286912084        0.7806810505       -0.4535890612
 C          2.7139166144        1.6225532804        0.7446062175
 C          2.7799786895        0.6162939048        1.6879418267
 C          1.9040450259        0.6483986346        2.7613063008
 C          0.9802906422        1.6761131440        2.8714036094
 C          0.9340418774        2.6840732226        1.9204724502
 C          1.8010714400        2.6539152102        0.8402567208
 H          1.7912947199        3.4136627582        0.0745413885
 H          0.2179713321        3.4856253694        2.0111219606
 H          0.2846290461        1.6821290204        3.6955048762
 H          1.9330994181       -0.1350605595        3.5014220416
 H          3.5100157069       -0.1677455305        1.5662513781
 H          1.9625213143        1.0836160731       -2.0343465689
 H          4.2819998571       -1.5947954588       -1.8181180049
 H          3.7252604854       -3.7963423611       -0.8079452941
 H          1.6100402313       -4.1098279884        0.3817463014
 H         -0.1605619128       -1.6817282218        1.8310502778
 C         -0.7182142447       -3.6374239060        1.2392889989
 C         -2.1401808445       -4.1108665745        1.2183302337
 C         -1.1653448458       -4.6249347309        0.2042506524
 H         -0.8288899770       -5.6480024633        0.2880233052
 H         -1.2514252306       -4.2701865904       -0.8107628870
 H         -2.4696949862       -4.7743112064        2.0041158851
 H         -2.8990282760       -3.4168219365        0.8864431476
 H         -0.1071970497       -4.0285773603        2.0465262260
