  62
        -98.93827923
 C         -1.8754459077       -0.7489215439       -0.2446996285
 C         -2.4750796556       -0.1122726832        0.8662386026
 C         -3.5762000029        0.8197468029        0.5726189144
 C         -3.9218348725        1.0477536442       -0.7062092963
 C         -4.9773378573        1.9839402253       -1.2399217643
 C         -6.3277226076        2.0208190450       -0.5112004325
 C         -6.7722618197        0.6845883701        0.1013383405
 H         -7.7926432995        0.4691320047       -0.2209895924
 H         -6.1375547162       -0.1243436151       -0.2644377920
 C         -6.7559139665        0.6944576988        1.6318316369
 H         -7.4065235316       -0.1047417020        1.9949834414
 H         -7.1756131206        1.6406901808        1.9803771450
 C         -5.3849037499        0.4884204273        2.2745090968
 H         -5.0551902492       -0.5425535964        2.1200743403
 H         -5.4937108537        0.6317715289        3.3522680493
 C         -4.2688994312        1.4150506690        1.7647800036
 H         -4.6488326449        2.4119659569        1.5547849781
 H         -3.5102995730        1.4899152079        2.5488683287
 H         -6.2994345561        2.7779162041        0.2713018238
 H         -7.0692894681        2.3517941511       -1.2402820639
 H         -4.5558449082        2.9933051886       -1.2638333635
 H         -5.1297246277        1.6761349064       -2.2772351829
 O         -3.2878443888        0.4426030063       -1.7502986627
 C         -2.2608390082       -0.4681289328       -1.5546961171
 O         -1.7878989634       -0.9414976138       -2.6042901811
 O         -2.0971073203       -0.3022060876        2.0542353540
 C         -0.7513568653       -1.7409743947       -0.0055473966
 C          0.5216917110       -1.2345161338       -0.6372129718
 C          1.3019368022       -1.9826203907       -1.5077285658
 C          2.4525163471       -1.4426951983       -2.0580427059
 C          2.8561163176       -0.1589076626       -1.7437138924
 C          2.0942350126        0.5902745439       -0.8547149166
 C          0.9421921870        0.0489713941       -0.3070889553
 H          0.3467298996        0.6355961639        0.3816554821
 N          2.5117056637        1.8861699706       -0.5065455528
 S          4.1298479979        2.1055088383       -0.1363236353
 O          4.1602300265        3.2188923086        0.7863331698
 O          4.8864190648        2.2776830527       -1.3515484097
 C          4.6336187556        0.5993849412        0.6778444025
 C          3.9739596258        0.2316201818        1.8339124654
 C          4.3270684033       -0.9531433736        2.4588274367
 C          5.3291386649       -1.7459246687        1.9201606542
 C          5.9866163477       -1.3594214496        0.7628596602
 C          5.6357690553       -0.1764945257        0.1320836366
 H          6.1174212797        0.1598754569       -0.7715240072
 H          6.7669153647       -1.9764856121        0.3475702871
 H          5.5981075649       -2.6698260111        2.4073097978
 H          3.8161109090       -1.2545469692        3.3592513825
 H          3.2012558302        0.8708273067        2.2307296914
 H          1.9151806010        2.3427588232        0.1673066993
 H          3.7399801931        0.2804096101       -2.1769959231
 H          3.0417607253       -2.0305172227       -2.7449190508
 H          1.0040916156       -2.9846785492       -1.7673606119
 H         -0.6057233565       -1.7555223434        1.0848207517
 C         -1.1541837160       -3.1270442700       -0.4606916093
 C         -0.5329237044       -4.3352607854        0.1720174557
 C         -1.9601755633       -3.9861570795        0.4654158199
 H         -2.7414580772       -4.6031409258        0.0474011670
 H         -2.1997820580       -3.5798363207        1.4373981233
 H         -0.3346155224       -5.1971803104       -0.4467305271
 H          0.1981296974       -4.1712542737        0.9488892225
 H         -1.3974682817       -3.1659044334       -1.5164058593
