  62
        -98.94085149
 C         -1.6953348519       -0.5614525968        0.0709485422
 C         -2.8597770622       -1.2424533482        0.5111361159
 C         -4.1141131079       -0.8817728269       -0.1580839482
 C         -4.1079223655        0.0553352820       -1.1228207283
 C         -5.2988194801        0.5137662718       -1.9201844878
 C         -6.1386063848        1.5928110371       -1.2230102212
 C         -6.9755646772        1.1025837917       -0.0407294864
 H         -7.6722798337        1.9042556922        0.2122215081
 H         -7.5688039462        0.2413681443       -0.3496540827
 C         -6.1583700240        0.7463145926        1.2090025044
 H         -5.1622390087        1.1881243133        1.1300195345
 H         -6.6326199143        1.1831466086        2.0907445169
 C         -6.0160149149       -0.7536532064        1.4675725376
 H         -5.3906483391       -0.8910318909        2.3532919169
 H         -6.9975617583       -1.1837830412        1.6784153304
 C         -5.3780683152       -1.5361710531        0.3122518182
 H         -6.0847552179       -1.6341170058       -0.5115949645
 H         -5.1212776773       -2.5343195885        0.6753103674
 H         -5.4725080428        2.3931711936       -0.8921984576
 H         -6.8154621849        2.0123176919       -1.9709362034
 H         -4.9074932829        0.9302848289       -2.8509474274
 H         -5.9304482968       -0.3419428618       -2.1606676943
 O         -2.9754020053        0.7026092424       -1.5031754460
 C         -1.7479261830        0.4362521103       -0.9037833393
 O         -0.8204582553        1.1491325399       -1.3299258297
 O         -2.8500720152       -2.1106957134        1.4232282453
 C         -0.3825056222       -0.9124258106        0.7478626411
 C          0.3732381335        0.3373660450        1.1193363346
 C         -0.1896257649        1.2074612534        2.0495429269
 C          0.4615177506        2.3702622922        2.4112766267
 C          1.6964677288        2.6797248127        1.8695212468
 C          2.2725113861        1.8132447820        0.9473748596
 C          1.6091889189        0.6510756968        0.5769110477
 H          2.0433926613        0.0201090986       -0.1790177132
 N          3.5469148670        2.0789131461        0.4418284244
 S          4.2577557430        1.2806838359       -0.8295208178
 O          5.5278149548        1.9586559342       -0.9896688878
 O          3.4254442511        1.2318832801       -2.0078890961
 C          4.5411606562       -0.3650707614       -0.2084519881
 C          4.3642039811       -1.4377681440       -1.0594328414
 C          4.5906073583       -2.7194980266       -0.5835482728
 C          4.9928366237       -2.9051962945        0.7300118906
 C          5.1743953944       -1.8172568226        1.5702175310
 C          4.9493042725       -0.5333233165        1.0997455189
 H          5.0774511136        0.3322704807        1.7278402008
 H          5.4874345636       -1.9659123290        2.5910938319
 H          5.1641270625       -3.9037676262        1.0999788745
 H          4.4497741325       -3.5659814506       -1.2367844117
 H          4.0415776997       -1.2454087822       -2.0708575282
 H          3.9328853304        2.9905095438        0.6278988418
 H          2.2078862768        3.5872851398        2.1513592727
 H          0.0068021194        3.0428922346        3.1231384200
 H         -1.1551407372        0.9656751981        2.4731149511
 H         -0.6856014662       -1.4135561227        1.6828544444
 C          0.4654617857       -1.9142922919       -0.0217216400
 C         -0.1704655014       -2.9627499288       -0.8829081305
 C          0.6212126227       -1.8568377074       -1.5104225013
 H          1.5871330117       -2.0906775528       -1.9331982145
 H          0.0976360898       -1.0760965867       -2.0403932420
 H          0.2503519759       -3.9566854119       -0.8756216241
 H         -1.2456246410       -2.9432681019       -0.9851867977
 H          1.3395034526       -2.2229758545        0.5446702456
