  62
        -98.93280170
 C         -2.1310806822       -0.9152187724        0.0982827399
 C         -3.0215351427       -0.3258285001        1.0300211311
 C         -3.8557177007        0.7752815939        0.5302185391
 C         -3.6929727724        1.2088810863       -0.7323579402
 C         -4.4096360094        2.3578421608       -1.3914148577
 C         -5.9288710113        2.1931198062       -1.5879903044
 C         -6.7807915705        2.7889842169       -0.4603533625
 H         -6.2057337699        3.5695362106        0.0394374394
 H         -7.6536727971        3.2760288764       -0.8997210910
 C         -7.3020703205        1.7927998035        0.5798227300
 H         -7.6660001029        2.3636121924        1.4368807123
 H         -8.1532455785        1.2516441351        0.1603264865
 C         -6.2953579361        0.7519946587        1.0702300315
 H         -6.1535406133       -0.0115353081        0.3014405591
 H         -6.7252616631        0.2421652658        1.9347955467
 C         -4.9130111448        1.3206326218        1.4455037361
 H         -4.6423364823        1.0071588711        2.4559908691
 H         -4.9233343216        2.4093251437        1.4153458683
 H         -6.1655694274        1.1388347716       -1.7290050357
 H         -6.1841958870        2.7081596290       -2.5154038713
 H         -4.2157806835        3.2666157592       -0.8167822512
 H         -3.9343425023        2.4732426101       -2.3676701267
 O         -2.7797231020        0.6587202848       -1.5769323080
 C         -1.9850915054       -0.4162926741       -1.1973432968
 O         -1.2089125047       -0.8048772752       -2.0881038258
 O         -3.1049704701       -0.6934934315        2.2332078667
 C         -1.2648808892       -2.0644025476        0.5811540391
 C          0.1741948557       -1.8340944943        0.1912297281
 C          0.9270278318       -2.7314652019       -0.5531972477
 C          2.2450043396       -2.4473735819       -0.8669114110
 C          2.8381241049       -1.2700263389       -0.4519788118
 C          2.0961908376       -0.3661322173        0.2977919331
 C          0.7806818057       -0.6592768701        0.6208134763
 H          0.2016733138        0.0463823728        1.2054967860
 N          2.6805891120        0.8449947030        0.7058755338
 S          4.1949908595        0.8117596936        1.4263208368
 O          4.4168462245       -0.4264799184        2.1367211249
 O          4.2630901242        2.0239478476        2.2134069227
 C          5.3272655731        0.9449766547        0.0590885548
 C          5.1801598993        2.0117206344       -0.8055862675
 C          6.0583524097        2.1357959721       -1.8701997359
 C          7.0649662134        1.1984497140       -2.0490383906
 C          7.2019475776        0.1354607413       -1.1695931932
 C          6.3260662142        0.0050037663       -0.1030132794
 H          6.3904749075       -0.8076126824        0.6029660831
 H          7.9854196073       -0.5916981729       -1.3103150779
 H          7.7465051196        1.2975236306       -2.8791036362
 H          5.9544887298        2.9609828123       -2.5562909103
 H          4.3866830917        2.7191254144       -0.6304719790
 H          2.0530537170        1.4517514708        1.2128604705
 H          3.8611087028       -1.0431156227       -0.7035850815
 H          2.8166145111       -3.1510776214       -1.4525940476
 H          0.4774796904       -3.6442882923       -0.9071756998
 H         -1.3252312742       -2.0042067863        1.6815694373
 C         -1.7836445327       -3.4426899822        0.1992871355
 C         -3.2416342761       -3.6748468582       -0.0589563693
 C         -2.2577919325       -3.7669959985       -1.1845353963
 H         -2.0326076739       -4.7439553645       -1.5867524471
 H         -2.2343567110       -2.9764149955       -1.9176786474
 H         -3.6896159492       -4.5842927707        0.3125529265
 H         -3.8991925010       -2.8182919385       -0.0222333134
 H         -1.2620548328       -4.2316245394        0.7326634296
