  62
        -98.94462273
 C         -2.1582016639        0.9962802085        0.4147997912
 C         -3.1872571679        1.1995265222       -0.5373561991
 C         -4.4531700422        0.5091098843       -0.2702000780
 C         -4.5785858911       -0.2508283215        0.8330489552
 C         -5.8118725244       -1.0038575908        1.2525173367
 C         -5.9578889663       -2.3799521238        0.5884537631
 C         -6.3417976899       -2.3509033519       -0.8915346227
 H         -6.6209261747       -3.3691955520       -1.1696059609
 H         -7.2241803150       -1.7241061790       -1.0245165176
 C         -5.2223922019       -1.8733268229       -1.8271760414
 H         -4.2639155112       -1.9262793013       -1.3052625627
 H         -5.1550434582       -2.5445503229       -2.6863510086
 C         -5.4130829859       -0.4577177599       -2.3719325616
 H         -6.3018287413       -0.4258684396       -3.0060297376
 H         -4.5479803866       -0.2101058653       -2.9921744723
 C         -5.5455382077        0.6226010434       -1.2903951812
 H         -5.4532090771        1.6003968177       -1.7693636480
 H         -6.5223705641        0.5581871980       -0.8117905252
 H         -5.0207958495       -2.9281389635        0.7114371085
 H         -6.7341332622       -2.9232450545        1.1323471957
 H         -5.7349368214       -1.1495163236        2.3321853346
 H         -6.6974888963       -0.4025159560        1.0452395382
 O         -3.5706130211       -0.4102247181        1.7309000589
 C         -2.3316919507        0.1854768955        1.5363774712
 O         -1.4976726674       -0.0741269357        2.4246979876
 O         -3.0532981262        1.9237881507       -1.5592707928
 C         -0.8108189575        1.6565044484        0.1746234437
 C          0.2099575047        0.5763235852       -0.0824174663
 C          0.1184394893       -0.1583782928       -1.2624686501
 C          0.9994976540       -1.1894181427       -1.5247054461
 C          1.9927169782       -1.5116376065       -0.6157384442
 C          2.0968683537       -0.7808403338        0.5597433941
 C          1.2166113569        0.2638003983        0.8164854553
 H          1.3040890872        0.8124028916        1.7406730833
 N          3.1040532874       -1.0983972596        1.4833666727
 S          4.6396338041       -1.4326978493        0.9177289670
 O          4.7004963608       -2.7902031162        0.4351349627
 O          5.5246332932       -1.1138761574        2.0159769778
 C          4.8927891202       -0.2995221897       -0.4376374111
 C          4.8406717422        1.0546861868       -0.1720519599
 C          5.0056267183        1.9493536166       -1.2165822983
 C          5.2171039885        1.4773318386       -2.5032066470
 C          5.2707502981        0.1151036053       -2.7529449777
 C          5.1059552748       -0.7844678255       -1.7117253230
 H          5.1398370241       -1.8512545264       -1.8620466643
 H          5.4370972629       -0.2492609687       -3.7538761054
 H          5.3414111552        2.1764347103       -3.3151038447
 H          4.9661043641        3.0095620093       -1.0245828086
 H          4.6807349367        1.3894962125        0.8401443049
 H          3.1181709110       -0.5113553993        2.3034045527
 H          2.6751702614       -2.3269913402       -0.7922549784
 H          0.9118963881       -1.7525638307       -2.4413984594
 H         -0.6640903481        0.0870125898       -1.9671879644
 H         -0.9349515908        2.2358336228       -0.7509028136
 C         -0.4463370519        2.6035265692        1.2972257129
 C          0.6001698854        3.6520634659        1.0690878291
 C         -0.8407181798        4.0449418437        1.1919366455
 H         -1.1632676415        4.5563134631        2.0865818167
 H         -1.3658919947        4.3544100721        0.3003237409
 H          1.2694804864        3.8998116009        1.8789737003
 H          1.0539885211        3.6952691082        0.0908068667
 H         -0.5072357556        2.1447795318        2.2772941426
