  62
        -98.93700197
 C         -2.5272121598       -1.1593718302       -0.3655280501
 C         -2.2209001996        0.1263287096        0.1467750003
 C         -3.3423702495        0.8511031995        0.7686554607
 C         -4.5473138195        0.2617683896        0.8605355606
 C         -5.7820823694        0.9064128095        1.4188921210
 C         -6.5849622195        1.6149145400        0.3188385513
 C         -5.7419658395        2.5325538302       -0.5666370985
 H         -5.0356197696        1.9262473303       -1.1382050988
 H         -6.4174279295        3.0014968005       -1.2853074782
 C         -4.9725167693        3.6194525898        0.1969325518
 H         -5.0879974693        4.5676273500       -0.3323313979
 H         -5.4022999991        3.7489913896        1.1908214719
 C         -3.4698976093        3.3616039197        0.3254114315
 H         -2.9965144392        4.2796995495        0.6835902217
 H         -3.0510256494        3.1412167399       -0.6597850886
 C         -3.0650509493        2.2351062693        1.2850912911
 H         -1.9813454592        2.2897717692        1.4273313309
 H         -3.5443033991        2.3876315790        2.2543985312
 H         -7.0467921596        0.8553437302       -0.3162235888
 H         -7.3814578193        2.1927454899        0.7910649716
 H         -6.4028706394        0.1282448294        1.8661935709
 H         -5.4965376992        1.6178470893        2.1913746112
 O         -4.7897248697       -0.9940401402        0.4061676703
 C         -3.7945212299       -1.7302923401       -0.2135015401
 O         -4.1544927500       -2.8682096000       -0.5755426104
 H          0.9802496001       -0.8746532002       -1.4609883305
 C          0.9381731201       -1.4361147605       -0.5407244606
 C         -0.2355927699       -2.0768740805       -0.1821582507
 C         -0.2809274598       -2.7582782709        1.0308618791
 C          0.8240025803       -2.7978179713        1.8591626290
 C          1.9978071303       -2.1606123313        1.4959599290
 C          2.0495956102       -1.4693714109        0.2937305792
 N          3.2384346802       -0.8291354709       -0.1026417007
 S          4.1913173605       -0.0777079913        1.0694261894
 O          4.9268707505       -1.0953310216        1.7794676989
 O          3.3970282707        0.8108372585        1.8879824998
 C          5.3039318604        0.8512678889        0.0328221495
 C          4.9979387205        2.1617119290       -0.2817878900
 C          5.8545610505        2.8692626992       -1.1105367399
 C          6.9939188603        2.2565756392       -1.6104524703
 C          7.2872920303        0.9404139791       -1.2858631607
 C          6.4358517203        0.2277369789       -0.4567321108
 H          6.6263666802       -0.7930977212       -0.1696733212
 H          8.1753352402        0.4688610191       -1.6747303610
 H          7.6586387803        2.8101538794       -2.2546964102
 H          5.6300770105        3.8932756193       -1.3625501996
 H          4.1052460206        2.6001061290        0.1357459202
 H          3.0841859302       -0.2075074306       -0.8850667605
 H          2.8634997504       -2.1759383815        2.1381205389
 H          0.7735578904       -3.3262904615        2.7997132488
 H         -1.2017132498       -3.2466379309        1.3215167991
 C         -1.4795206600       -2.0348072701       -1.0343945305
 H         -1.9177098301       -3.0460071301       -1.0339067708
 C         -1.2029141002       -1.6876825797       -2.4894974304
 C         -2.3134875102       -1.2231104793       -3.3827583701
 C         -1.2080920001       -0.2833663695       -3.0109434400
 H         -0.4870055102       -0.0195407093       -3.7711825200
 H         -1.4173625799        0.5123323303       -2.3140900197
 H         -2.3538834104       -1.5999495890       -4.3935751302
 H         -3.2846395202       -1.0776182593       -2.9318462499
 H         -0.4816641603       -2.3681834796       -2.9320667607
 O         -1.0829185996        0.6604335895        0.0901577103
