  62
        -98.93168123
 C          1.9268718110        1.7064721952       -0.0318618135
 C          2.6448254136        1.1230238511       -1.1019767875
 C          3.7898796354        0.2630858788       -0.7235076151
 C          4.1215400983        0.1246787275        0.5698307679
 C          5.1930717734       -0.7498799045        1.1600212147
 C          4.6134847812       -2.1178210611        1.5589736328
 C          4.6109220959       -3.1666063907        0.4474676289
 H          5.6372576744       -3.4842909428        0.2513219462
 H          4.0638246767       -4.0353254793        0.8213003219
 C          3.9775845651       -2.7215523031       -0.8734468955
 H          3.0504225758       -2.1789753858       -0.6757622319
 H          3.7066603917       -3.6190602958       -1.4336114433
 C          4.9166139495       -1.8628928153       -1.7338026583
 H          5.9281800127       -1.9328878262       -1.3341217009
 H          4.9539859244       -2.2731854135       -2.7451631483
 C          4.5146623862       -0.3872116180       -1.8709371633
 H          5.4069647570        0.2055464371       -2.0991684035
 H          3.8390811404       -0.2733762654       -2.7246803413
 H          3.5919532382       -1.9588173808        1.9151572157
 H          5.1927933471       -2.5142855044        2.3953821173
 H          6.0260422827       -0.8603843082        0.4723112652
 H          5.5444586926       -0.2444516312        2.0619433807
 O          3.4492549737        0.7671644974        1.5650901799
 C          2.3492763900        1.5545264580        1.2936581371
 O          1.8368225455        2.0816677263        2.3013332363
 H          0.0165748599       -0.0770954794        0.1300115589
 C         -0.6371627328        0.5766240789        0.6894325891
 C         -0.4377864646        1.9491297073        0.6663599330
 C         -1.2866385161        2.7581312204        1.4141776912
 C         -2.3029894550        2.2073956500        2.1726291345
 C         -2.5061438835        0.8389955286        2.1820108731
 C         -1.6660572788        0.0215305176        1.4364023089
 N         -1.8458705327       -1.3793125101        1.4107809173
 S         -2.3480641389       -2.0325675263       -0.0483508204
 O         -2.5429565411       -3.4423020771        0.2049739038
 O         -1.4102691997       -1.6810432608       -1.0819264452
 C         -3.9256928319       -1.2528944266       -0.3456990471
 C         -5.0784520126       -1.9061334254        0.0450694891
 C         -6.2981463955       -1.2686896432       -0.1161912140
 C         -6.3428257660        0.0094877208       -0.6523606362
 C         -5.1764147139        0.6533361713       -1.0361705870
 C         -3.9535405682        0.0193961380       -0.8814957876
 H         -3.0286147224        0.4881392013       -1.1753008303
 H         -5.2097554825        1.6464438813       -1.4543183312
 H         -7.2919652565        0.5070674314       -0.7737982829
 H         -7.2068635647       -1.7684916101        0.1783284218
 H         -4.9950313087       -2.9003233458        0.4536912731
 H         -2.4456107463       -1.7209551900        2.1496799318
 H         -3.2982491677        0.4028955844        2.7721763308
 H         -2.9445740457        2.8474372820        2.7583536557
 H         -1.1289332149        3.8265374606        1.4135520995
 C          0.6660454435        2.5525381325       -0.1684440429
 H          0.8964976787        3.5388567159        0.2708716938
 C          0.2090033616        2.7976599691       -1.5982199964
 C         -0.6208275342        1.8128208676       -2.3595656963
 C         -1.2251640871        3.1086238635       -1.9126248806
 H         -1.4292167612        3.8603765359       -2.6599630150
 H         -1.9396017329        3.0813026778       -1.1035129505
 H         -0.3919180877        1.6738889506       -3.4053812111
 H         -0.9051839288        0.8945519928       -1.8668110133
 H          0.9581139402        3.3280312485       -2.1741686234
 O          2.3842232611        1.2889856610       -2.3210678188
