  62
        -98.93812273
 C          1.9622220103        1.3878376200        0.3022007899
 C          2.6187484802        0.7279324699       -0.7633993700
 C          3.7841072503       -0.0960952700       -0.3970660301
 C          4.1600069204       -0.1770833498        0.8906995499
 C          5.3336242805       -0.9206607197        1.4773018599
 C          5.5893093705       -2.3476224197        0.9707232500
 C          4.3319441105       -3.1292040099        0.5620285402
 H          4.3447386006       -4.1039531098        1.0535851204
 H          3.4364115205       -2.6061086199        0.9024767903
 C          4.2403591404       -3.3674454900       -0.9474175297
 H          3.5645674704       -4.2066732901       -1.1297485096
 H          5.2271160804       -3.6570975100       -1.3153080598
 C          3.7262356503       -2.1871151002       -1.7713973198
 H          2.6592405703       -2.0381612102       -1.5817192897
 H          3.8273093802       -2.4462269303       -2.8280577398
 C          4.4357563102       -0.8459246401       -1.5226530200
 H          5.4999251602       -0.9885495900       -1.3511824801
 H          4.3042756601       -0.2274744402       -2.4145804601
 H          6.1031084106       -2.8801396596        1.7727960500
 H          6.2755376705       -2.3168064298        0.1255820600
 H          5.1471876006       -0.9422208496        2.5536875999
 H          6.2325055605       -0.3183027397        1.3179504697
 O          3.4923617105        0.4726971803        1.8865638199
 C          2.3776245104        1.2512815502        1.6246715299
 O          1.8490083505        1.7530950503        2.6383771699
 O          2.2572055801        0.8238250897       -1.9640683100
 C          0.7419876002        2.2462482999        0.0230161500
 C         -0.3295309598        1.4156070697       -0.6416984298
 C         -1.0417943400        1.8335581596       -1.7574999298
 C         -2.0083828600        1.0165200694       -2.3196746496
 C         -2.2932998998       -0.2230658005       -1.7790691195
 C         -1.6025105197       -0.6409652203       -0.6478989195
 C         -0.6374971897        0.1794007698       -0.0856010897
 H         -0.0985565496       -0.1498711201        0.7950367003
 N         -1.9031311796       -1.8890763003       -0.0752158693
 S         -3.5203447595       -2.2753430903        0.1255531809
 O         -3.5589794394       -3.1694057102        1.2617359810
 O         -4.0485798496       -2.8040107805       -1.1072687190
 C         -4.3261748596       -0.7309630503        0.5128598808
 C         -5.3150796297       -0.2415572705       -0.3157854192
 C         -5.9026223297        0.9760689995       -0.0114327893
 C         -5.4894904997        1.6815783197        1.1077946606
 C         -4.4969504896        1.1747257398        1.9329395406
 C         -3.9082428095       -0.0432360602        1.6350593907
 H         -3.1368438894       -0.4649369801        2.2599180707
 H         -4.1756134095        1.7238886299        2.8035486705
 H         -5.9427297097        2.6320405597        1.3410818406
 H         -6.6761526298        1.3717960594       -0.6494869792
 H         -5.6024672998       -0.8208653206       -1.1780052591
 H         -1.3717196095       -2.0980492502        0.7568239807
 H         -3.0291849299       -0.8784391706       -2.2159689093
 H         -2.5441144201        1.3487377293       -3.1955286196
 H         -0.8329439801        2.7950978595       -2.1960042800
 H          0.3643016703        2.5652759000        1.0056155799
 C          1.1361932100        3.4752919198       -0.7690731902
 C          0.3568103500        4.7471154998       -0.6268970003
 C          1.7317840400        4.6412736599       -0.0408641104
 H          2.5383562800        5.1849547699       -0.5094098106
 H          1.8290611902        4.5576652701        1.0321111196
 H          0.2209320699        5.3690568597       -1.4987378204
 H         -0.4830550500        4.7461976298        0.0510997898
 H          1.5479015200        3.2289620297       -1.7408983502
