  62
        -98.93376185
 C         -2.4892141802       -0.1073733368       -0.5728609072
 C         -2.2029398199       -0.6407831255        0.7070830383
 C         -1.8282461229       -2.0620410758        0.7368588875
 C         -1.7881985064       -2.7611157907       -0.4110294110
 C         -1.4480661504       -4.2197702130       -0.5194287017
 C          0.0440556278       -4.4509149666       -0.7883801262
 C          0.9749395147       -3.6842662943        0.1509804541
 H          1.9967815665       -3.9835365413       -0.0952312856
 H          0.8993150212       -2.6151393252       -0.0589058147
 C          0.7199238026       -3.9246916351        1.6453287942
 H          0.1574746800       -4.8491843400        1.7844005194
 H          1.6831188650       -4.0521534682        2.1437712598
 C         -0.0006835779       -2.7756765397        2.3543473149
 H          0.4689683210       -1.8285408498        2.0755366619
 H          0.1236598210       -2.9063680966        3.4328453924
 C         -1.5051485784       -2.6603492396        2.0764280780
 H         -1.9800472310       -3.6372474481        2.1919637074
 H         -1.9330338224       -1.9786803568        2.8173072829
 H          0.2424994103       -5.5220421381       -0.7079257703
 H          0.2645970744       -4.1396897648       -1.8124198234
 H         -1.7410860661       -4.7182903551        0.4029088922
 H         -2.0239626443       -4.6402001002       -1.3464631436
 O         -2.0587865779       -2.2097024191       -1.6239902902
 C         -2.3881579171       -0.8694015252       -1.7340127902
 O         -2.5815368149       -0.4808009504       -2.9073308748
 H         -0.3259830790        1.1511768030       -0.9645597390
 C         -0.5555854016        1.9092115170       -0.2279804530
 C         -1.8918430426        2.1949482274        0.0540121464
 C         -2.1485370130        3.2011294146        0.9743375965
 C         -1.1060939181        3.8704522637        1.5985147260
 C          0.2108590918        3.5444043021        1.3487226560
 C          0.4849493468        2.5331811331        0.4319312009
 N          1.8113062186        2.1176819510        0.2125688585
 S          2.1742312073        0.7783666282       -0.7209895415
 O          2.0316053683        1.0715385733       -2.1337979349
 O          1.4397650598       -0.3514992549       -0.2155218777
 C          3.9027430012        0.6057125078       -0.3215537146
 C          4.8537195688        1.1916488931       -1.1351332167
 C          6.1921213395        1.0780463758       -0.7928297475
 C          6.5550299418        0.3848724951        0.3520439536
 C          5.5896628472       -0.2009807568        1.1574652475
 C          4.2501336331       -0.0902688134        0.8203863437
 H          3.4645622691       -0.5344461584        1.4098146357
 H          5.8747381548       -0.7427124917        2.0448748177
 H          7.5969163512        0.2979007376        0.6168608600
 H          6.9448711300        1.5288786861       -1.4192769285
 H          4.5258148493        1.7097203011       -2.0220801753
 H          2.4924820115        2.8586510312        0.1487256994
 H          1.0174580958        4.0479797938        1.8573536892
 H         -1.3339298085        4.6518843618        2.3078362101
 H         -3.1534528423        3.4742385719        1.2387371496
 C         -2.8807416683        1.3591708429       -0.7261357442
 H         -2.7129867694        1.5934116276       -1.7925362376
 C         -4.3834755194        1.4615114995       -0.5074959373
 C         -5.0521498544        1.6697563862        0.8143475923
 C         -5.1569298262        2.7206365580       -0.2525031604
 H         -6.1055698424        2.8277137644       -0.7581284062
 H         -4.6226292387        3.6495986923       -0.1441291442
 H         -4.4221669462        1.8318027818        1.6735586096
 H         -5.9278316735        1.0756620420        1.0327232870
 H         -4.8704056150        0.7487968973       -1.1712864955
 O         -2.2712748899        0.0256501904        1.7712469913
