  62
        -98.92943568
 C         -1.2875707903       -1.1916513008        0.2188439899
 C         -2.1937309604       -0.6928055704        1.1822309695
 C         -2.8755594502        0.5683534496        0.8511711291
 C         -2.5847045398        1.1873228093       -0.3058456210
 C         -3.1290515595        2.4963379193       -0.8203931815
 C         -4.6432569795        2.7282054296       -0.6998944819
 C         -5.5086526897        1.4617842397       -0.7723530817
 H         -6.3052082495        1.6190372096       -1.5019888319
 H         -4.9114315897        0.6169705395       -1.1193437814
 C         -6.1640101700        1.1092652901        0.5655320082
 H         -6.5404303399        2.0267970103        1.0233577979
 H         -7.0247644201        0.4633396202        0.3758568582
 C         -5.2671008903        0.3830648802        1.5676747086
 H         -5.0779687704       -0.6377320899        1.2241896989
 H         -5.8113751606        0.3059381906        2.5121571085
 C         -3.9045672303        1.0425468801        1.8363304787
 H         -3.9870883401        2.1268450601        1.8442715784
 H         -3.5599745805        0.7114435503        2.8200185089
 H         -4.8585896896        3.2479304098        0.2329539380
 H         -4.9246366692        3.4058911194       -1.5075394821
 H         -2.6071706594        3.3093324693       -0.3074719816
 H         -2.8363150793        2.5322041689       -1.8718694514
 O         -1.6802753297        0.6874558589       -1.1917649007
 C         -1.0163817700       -0.5105713511       -0.9686978103
 O         -0.2339241398       -0.8365580615       -1.8757331000
 O         -2.4131929408       -1.2698572401        2.2829237896
 C         -0.5686914006       -2.5034459408        0.5133301603
 C          0.9082129095       -2.2896231711        0.2903925706
 C          1.7363204995       -2.9124799115       -0.6326745691
 C          3.0737421396       -2.5622368218       -0.7341986289
 C          3.6215631896       -1.5787423517        0.0649675610
 C          2.8023210796       -0.9352110613        0.9838468006
 C          1.4734541895       -1.3020397010        1.0967578005
 H          0.8431904294       -0.7932457907        1.8167663602
 N          3.3310882896        0.1018702488        1.7820249205
 S          3.9851743900        1.4016190685        0.9478071303
 O          5.2608692300        1.0130871781        0.4019612307
 O          4.0060039000        2.4912479987        1.8980573600
 C          2.8325675703        1.7441968483       -0.3678989200
 C          3.0411518805        1.2016588880       -1.6194416499
 C          2.1039125407        1.4316080779       -2.6130048501
 C          0.9834131908        2.1994177882       -2.3415772305
 C          0.7905684906        2.7409573685       -1.0806298407
 C          1.7173761304        2.5049297986       -0.0792539405
 H          1.6016998802        2.9101777389        0.9139153594
 H         -0.0841567893        3.3366464587       -0.8739109811
 H          0.2504890110        2.3687562281       -3.1141132307
 H          2.2435820308        1.0030880076       -3.5919638200
 H          3.9287522004        0.6166834078       -1.7951064895
 H          2.6750242095        0.4419393591        2.4712116603
 H          4.6556208197       -1.2854075719       -0.0161085389
 H          3.6958223997       -3.0629750921       -1.4605880086
 H          1.3571808696       -3.6588711416       -1.3056175690
 H         -0.7023675309       -2.6525234305        1.5984590104
 C         -1.3366956107       -3.6391499409       -0.1451005495
 C         -1.2273566004       -4.0414374913       -1.5823906994
 C         -0.7788166208       -4.9832412611       -0.5026370691
 H         -1.3955194110       -5.8475625109       -0.3034234390
 H          0.2733961591       -5.1637939912       -0.3579587688
 H         -2.1425769404       -4.2718247612       -2.1092105795
 H         -0.5017487302       -3.5329398915       -2.1960027294
 H         -2.3461374208       -3.6503089106        0.2619485403
