  62
        -98.94457436
 C          2.0838844418        1.1118072036       -0.6243500646
 C          1.5343660209       -0.0118062845       -1.2879232780
 C          2.1936229536       -1.3017212594       -1.0277795907
 C          3.2377774574       -1.3568445640       -0.1837019835
 C          3.9792637030       -2.6066577009        0.1917343414
 C          3.3899913539       -3.2605774405        1.4483613021
 C          1.8730691933       -3.4466910119        1.4018902679
 H          1.5821005949       -3.9678682354        2.3173009115
 H          1.3822769197       -2.4704195305        1.4275078048
 C          1.3635372349       -4.2308981080        0.1846508737
 H          2.1806630753       -4.7983867494       -0.2636218429
 H          0.6145453043       -4.9496486406        0.5241482084
 C          0.6944991331       -3.3603464328       -0.8805639022
 H         -0.0246582099       -2.6978877924       -0.3923048641
 H          0.1382868122       -4.0136206374       -1.5586282197
 C          1.6433872067       -2.5088399199       -1.7345335838
 H          2.4536296942       -3.1330355957       -2.1180714435
 H          1.0732277201       -2.1246811070       -2.5855004965
 H          3.8717036458       -4.2307090490        1.5879841053
 H          3.6302465891       -2.6345041656        2.3110216090
 H          3.9450374584       -3.3051546854       -0.6423617523
 H          5.0195751979       -2.3399886844        0.3878727780
 O          3.7293590983       -0.2614546769        0.4514611239
 C          3.1573282963        0.9839134012        0.2607330508
 O          3.6986906286        1.8993639019        0.9152884434
 H         -0.5778115316        0.9543139577       -0.1513381205
 C         -0.5295021922        1.8127174502        0.4948968664
 C          0.4812146567        2.7463439747        0.3124881082
 C          0.5279584037        3.8545736424        1.1485944909
 C         -0.4084161349        4.0096020336        2.1562360629
 C         -1.3859649339        3.0536768974        2.3627209565
 C         -1.4422350221        1.9400579976        1.5294890995
 N         -2.4203972298        0.9557094119        1.7173243665
 S         -2.1349306861       -0.6800819566        1.4488479651
 O         -2.8155026829       -1.3468692328        2.5416152790
 O         -0.7281334616       -0.9621843231        1.3117989851
 C         -3.0404657306       -1.0093769483       -0.0505599005
 C         -4.3873617024       -1.2932125176        0.0842460573
 C         -5.1450964398       -1.5332251481       -1.0491830577
 C         -4.5469230345       -1.4850336480       -2.2996881721
 C         -3.1964796457       -1.1997995626       -2.4187204414
 C         -2.4309485305       -0.9573972102       -1.2872759681
 H         -1.3790363724       -0.7326080847       -1.3767905371
 H         -2.7230778589       -1.1595018105       -3.3867017369
 H         -5.1344870086       -1.6718090757       -3.1848302696
 H         -6.1955953154       -1.7569195218       -0.9552956582
 H         -4.8070156610       -1.3349983426        1.0757843130
 H         -2.9940259031        1.0877441003        2.5371200491
 H         -2.0981641310        3.1611665025        3.1669888986
 H         -0.3640752891        4.8737941355        2.8018090370
 H          1.3153401298        4.5829939608        1.0206698168
 C          1.5230148444        2.5208138430       -0.7538813297
 H          2.3695045975        3.1912211841       -0.5330861767
 C          1.0343015353        2.8557710113       -2.1556350669
 C         -0.4104273342        3.0058010430       -2.5148077118
 C          0.4681654919        4.2160129159       -2.4395367300
 H          0.7502191503        4.7130456207       -3.3552857450
 H          0.3309856954        4.8801333358       -1.5993143501
 H         -0.7221113901        2.6463972141       -3.4833298000
 H         -1.1472254481        2.8607741396       -1.7403880739
 H          1.6764288981        2.4273615679       -2.9182037106
 O          0.5522928676        0.0362603603       -2.0727981107
