  62
        -98.94467001
 C          1.9875155657        0.7667869376        0.5641875125
 C          1.9820340031        0.0729442476       -0.6696554327
 C          2.0843868107       -1.3875580467       -0.5787599097
 C          2.1087353016       -1.9824738268        0.6272011761
 C          2.1641545212       -3.4646258396        0.8826870595
 C          3.5795288364       -4.0570852684        0.8340203319
 C          4.1938079396       -4.1620914640       -0.5624233489
 H          5.0845348894       -4.7870753168       -0.4736897680
 H          3.4977595961       -4.6770388363       -1.2251047572
 C          4.5949748220       -2.8154450164       -1.1803120317
 H          4.6436445603       -2.0556588099       -0.3969687587
 H          5.5949314002       -2.8962334668       -1.6121606323
 C          3.6619409993       -2.3230417263       -2.2866793163
 H          4.0180720715       -1.3474958375       -2.6268643847
 H          3.7018155579       -3.0112630886       -3.1337697027
 C          2.1980303722       -2.1665193484       -1.8538910095
 H          1.7279246661       -3.1437768275       -1.7444043719
 H          1.6634956793       -1.6087083650       -2.6267997014
 H          4.2296172348       -3.4569224074        1.4747039150
 H          3.5260045122       -5.0610676987        1.2612418057
 H          1.5236874236       -3.9800530490        0.1661050238
 H          1.7571736346       -3.6206160800        1.8843572406
 O          2.0668705671       -1.2813667803        1.7929993225
 C          2.0137074656        0.1030608327        1.7889370267
 O          1.9970539429        0.6207683652        2.9262879568
 O          1.9006667568        0.6429635248       -1.7894648084
 C          1.8579490975        2.2794330983        0.5778719540
 C          0.5709160797        2.6682401417       -0.1100116639
 C          0.4717584401        3.7000087725       -1.0339232880
 C         -0.7373157328        3.9686889836       -1.6527321822
 C         -1.8612270515        3.2133683996       -1.3752025912
 C         -1.7763439948        2.1917848817       -0.4348301096
 C         -0.5727293013        1.9436278714        0.2016256642
 H         -0.5174605800        1.1468515891        0.9305511562
 N         -2.9031550251        1.4182317003       -0.1037814335
 S         -2.6669912486       -0.1923892290        0.3444993748
 O         -2.3192231697       -0.2374949670        1.7440340832
 O         -1.7576697626       -0.8485936263       -0.5678033860
 C         -4.3235042683       -0.8170155492        0.1253701737
 C         -5.2681082706       -0.5361159652        1.0947534902
 C         -6.5658781553       -0.9880822151        0.9163570550
 C         -6.8963130898       -1.7082016931       -0.2222963010
 C         -5.9374866113       -1.9837519803       -1.1854232456
 C         -4.6376003197       -1.5334380526       -1.0137612259
 H         -3.8563148487       -1.7278846011       -1.7310711534
 H         -6.1959714629       -2.5463304134       -2.0679613841
 H         -7.9069422106       -2.0591826096       -0.3585603428
 H         -7.3130594677       -0.7778666057        1.6643866980
 H         -4.9609177671        0.0187081113        1.9658864653
 H         -3.6517521962        1.5080958100       -0.7776004410
 H         -2.7961436172        3.4094840913       -1.8775277181
 H         -0.7999249753        4.7674614261       -2.3761187319
 H          1.3433530839        4.2838219837       -1.2805618793
 H          1.7836685764        2.5704024874        1.6366073368
 C          3.0876323304        2.9255283307       -0.0252912357
 C          3.5307981410        4.2819143625        0.4319866428
 C          4.3168058384        3.0665710054        0.8195678081
 H          5.2800451525        2.9039118562        0.3599323984
 H          4.2559561152        2.7187397840        1.8408923053
 H          3.9596462242        4.9563500009       -0.2936731108
 H          2.9432059793        4.7680426217        1.1960584908
 H          3.2236224491        2.6627426064       -1.0680444925
