  62
        -98.93393226
 C         -1.8835822476       -1.1046763702        0.2549059840
 C         -2.3330883211       -0.1203095110        1.1687973562
 C         -2.6263687792        1.2084041095        0.6137140086
 C         -2.4016174247        1.4324737299       -0.6934307934
 C         -2.7081185362        2.7085855202       -1.4252515045
 C         -4.2220747959        2.8108870181       -1.7008861894
 C         -4.9200695184        3.9579816562       -0.9699163688
 H         -4.6777560437        4.8971870484       -1.4712862210
 H         -5.9962132660        3.7998596732       -1.0660454779
 C         -4.5698382700        4.1150965737        0.5128293380
 H         -5.3195231681        4.7789801918        0.9483204623
 H         -3.6089824300        4.6223559780        0.6117674465
 C         -4.5249090927        2.8190244112        1.3323806782
 H         -4.9552536314        3.0228467268        2.3148927007
 H         -5.1411974133        2.0484211215        0.8688457388
 C         -3.1094829345        2.2610647189        1.5731662562
 H         -2.3889708948        3.0839669663        1.6007378481
 H         -3.0858733766        1.7753298029        2.5534862224
 H         -4.6846474032        1.8625789361       -1.4194805372
 H         -4.3882948706        2.9357933774       -2.7718349732
 H         -2.3649010714        3.5572732430       -0.8374289387
 H         -2.1486046484        2.6852258422       -2.3607229113
 O         -1.9310338423        0.4764435354       -1.5335305542
 C         -1.6372365827       -0.8036616594       -1.0858659702
 O         -1.1887945254       -1.5549885701       -1.9718604779
 H          0.6489258584       -0.9843541032        1.0649882315
 C          0.8771961037       -1.9107970961        0.5559244202
 C         -0.1342321518       -2.8388715175        0.3376851133
 C          0.1806586844       -4.0237332069       -0.3126680077
 C          1.4719621592       -4.2531079698       -0.7565833461
 C          2.4639749513       -3.3079182628       -0.5771688421
 C          2.1603357438       -2.1226670638        0.0848962979
 N          3.1469995682       -1.1430641751        0.3023288024
 S          2.6750174314        0.4781238024        0.3001302963
 O          2.1501609163        0.8080006385        1.6030452770
 O          1.8178515819        0.7631138854       -0.8288114779
 C          4.2633799510        1.2614333671        0.0866528360
 C          5.0881298613        1.3973430870        1.1875471313
 C          6.3370949622        1.9743252294        1.0214826635
 C          6.7389279479        2.4023706516       -0.2352819816
 C          5.8998656551        2.2608655510       -1.3302992963
 C          4.6498020887        1.6830971928       -1.1713552408
 H          3.9595432479        1.5583518035       -1.9905486044
 H          6.2129640557        2.5972777077       -2.3055223607
 H          7.7111077574        2.8517573971       -0.3618852290
 H          6.9908975012        2.0882515581        1.8709714348
 H          4.7273259958        1.0579471084        2.1443915628
 H          3.9674910738       -1.2851339528       -0.2715617787
 H          3.4627029584       -3.4784070985       -0.9494346339
 H          1.7031340458       -5.1742361539       -1.2699086781
 H         -0.5885757836       -4.7546415937       -0.5000536900
 C         -1.5180268690       -2.4703387837        0.8113242926
 H         -1.4684675224       -2.3115024469        1.9025852394
 C         -2.5577664068       -3.5555500660        0.5792112996
 C         -3.9980021284       -3.2080422864        0.3525235756
 C         -3.1846148957       -3.7929336128       -0.7608363788
 H         -3.3850901127       -4.8119962712       -1.0579405569
 H         -2.8808592174       -3.1507066462       -1.5721229845
 H         -4.2554264452       -2.1598462027        0.3009424746
 H         -4.7536638305       -3.8218772619        0.8193411450
 H         -2.3691855038       -4.4330912188        1.1901421536
 O         -2.4790232424       -0.3443143988        2.4022396366
