  62
        -98.94488305
 C         -1.9214231940       -0.1630378302        0.0476499858
 C         -2.9339022743       -1.0475480818        0.4906644204
 C         -4.2484527157       -0.4443486110        0.7448290202
 C         -4.4079533162        0.8804370746        0.5705915115
 C         -5.7043591956        1.6165151052        0.7437189378
 C         -6.4830997499        1.6882733250       -0.5772498872
 C         -6.6157853002        0.3423850974       -1.2899881301
 H         -7.2088362235        0.5092980754       -2.1918355712
 H         -5.6261175645        0.0116800016       -1.6135176118
 C         -7.2681453942       -0.7614692825       -0.4458897083
 H         -7.8067569510       -0.3174187043        0.3920222272
 H         -8.0021812856       -1.2852264591       -1.0618623228
 C         -6.2937113886       -1.8169290675        0.0801610047
 H         -6.8780204622       -2.6550600324        0.4690982215
 H         -5.6856183213       -2.1969124386       -0.7446414651
 C         -5.3527209216       -1.3563670622        1.2005460352
 H         -4.8592288188       -2.2445686045        1.6058171546
 H         -5.9326726322       -0.8907234657        1.9998589309
 H         -7.4758405340        2.0926146239       -0.3712123178
 H         -5.9663582029        2.3803646230       -1.2462702886
 H         -5.4814268478        2.6307554097        1.0791963460
 H         -6.3021349486        1.1160820179        1.5030314984
 O         -3.4054227767        1.7021577945        0.1670973524
 C         -2.1406585133        1.2048081829       -0.1144637374
 O         -1.3227455118        2.0663830406       -0.4882611716
 O         -2.7447466472       -2.2807574056        0.6695808629
 C         -0.5430843122       -0.7247830792       -0.2548703935
 C          0.4853575387       -0.0479905763        0.6158880698
 C          0.3124407500       -0.0868734995        1.9982116342
 C          1.2057245014        0.5436125910        2.8407224856
 C          2.2995564716        1.2171901608        2.3242721245
 C          2.4855569895        1.2577836593        0.9485813510
 C          1.5849415753        0.6207291709        0.1035082634
 H          1.7468254643        0.6858767319       -0.9587308953
 N          3.5773089605        1.9497306021        0.3994775213
 S          4.4970112121        1.2623485292       -0.8143298934
 O          5.7031705915        2.0596276714       -0.8492892814
 O          3.7451058105        1.1893121554       -2.0401703975
 C          4.8681483320       -0.3734021860       -0.2090468529
 C          4.0856698724       -1.4414890840       -0.5975447032
 C          4.3447518635       -2.6911527710       -0.0565121709
 C          5.3741640276       -2.8498754147        0.8580954441
 C          6.1544051201       -1.7669968907        1.2347737433
 C          5.8979479116       -0.5148500018        0.7010300066
 H          6.4865643650        0.3506764994        0.9587887326
 H          6.9574274106       -1.8949261585        1.9426330578
 H          5.5703648495       -3.8240999227        1.2773232625
 H          3.7402102432       -3.5345820731       -0.3498817981
 H          3.2971288003       -1.2804169896       -1.3136780317
 H          4.1688049529        2.4007520081        1.0820092801
 H          2.9947242050        1.7191630086        2.9799658079
 H          1.0529836425        0.5107686559        3.9089146775
 H         -0.5443075001       -0.6103561531        2.4002962974
 H         -0.5944269406       -1.7853908134        0.0327022320
 C         -0.2498535943       -0.6374334371       -1.7370782135
 C          0.6596966656       -1.6367267198       -2.3846446463
 C         -0.8141694953       -1.6804095624       -2.6528940841
 H         -1.1745227945       -1.3735442888       -3.6233846783
 H         -1.3916696569       -2.4750142758       -2.2032320228
 H          1.3185790385       -1.2994222194       -3.1714093192
 H          1.0743929022       -2.4111172527       -1.7568075544
 H         -0.2303116561        0.3833579652       -2.1032171456
