  62
        -98.94033126
 C         -2.4345353811       -1.1638604492        0.0932332686
 C         -3.3384616209       -0.4674801896        0.9351094090
 C         -4.1779463805        0.5458835612        0.2871382697
 C         -4.0466163203        0.7745990022       -1.0320817401
 C         -4.8502932799        1.7520116031       -1.8461808994
 C         -4.3157763394        3.1899877729       -1.8020558882
 C         -4.5411585792        3.9270057919       -0.4812765676
 H         -5.5939927393        3.8623473621       -0.2050179178
 H         -4.3149851889        4.9802382220       -0.6588939268
 C         -3.6713184595        3.4254529707        0.6800711620
 H         -3.2369865393        4.2789972502        1.2058457028
 H         -2.8392033597        2.8379306007        0.2841927017
 C         -4.4196721599        2.5881706302        1.7176901213
 H         -5.1704153898        3.2066532900        2.2144872117
 H         -3.7027192601        2.2581332393        2.4742780911
 C         -5.1119387903        1.3435293408        1.1464152803
 H         -5.9971933501        1.6324753516        0.5802889404
 H         -5.4205490206        0.7098204603        1.9815424097
 H         -4.8179806091        3.7487314837       -2.5950393378
 H         -3.2479840894        3.1728890027       -2.0324456781
 H         -5.8887087399        1.7381257432       -1.5140429195
 H         -4.8101927899        1.4018557739       -2.8798264397
 O         -3.1463807104        0.1088045025       -1.8006525405
 C         -2.2985692908       -0.8526387582       -1.2609269612
 O         -1.4977307409       -1.3320172279       -2.0830927915
 O         -3.4357723111       -0.6810557005        2.1737197388
 C         -1.5410815415       -2.2104343001        0.7337307578
 C         -0.1036575114       -1.9885477202        0.3327864181
 C          0.6906274784       -2.9558678200       -0.2669574925
 C          2.0056921285       -2.6759613702       -0.5965861922
 C          2.5551583989       -1.4338776306       -0.3407978312
 C          1.7709702692       -0.4583626808        0.2617168795
 C          0.4585897890       -0.7457342906        0.6013416492
 H         -0.1521776007        0.0156505392        1.0731772497
 N          2.3134111896        0.8158290088        0.5066010506
 S          3.7832358595        0.9138800577        1.3115917508
 O          3.9655061391       -0.1973571431        2.2168469000
 O          3.7996142799        2.2335777672        1.9046650618
 C          4.9966091396        0.8488165783        0.0107997009
 C          6.0148934093       -0.0825459321        0.0657862002
 C          6.9571556394       -0.1054844817       -0.9508101797
 C          6.8650529398        0.7987449292       -1.9977156390
 C          5.8373591101        1.7295031496       -2.0366345184
 C          4.8932475501        1.7590000591       -1.0228249584
 H          4.0815534003        2.4672840394       -1.0144724879
 H          5.7684239905        2.4306588302       -2.8527367078
 H          7.5982811399        0.7784354596       -2.7884625489
 H          7.7570886992       -0.8277383120       -0.9223361202
 H          6.0421431190       -0.7699499128        0.8961375397
 H          1.6515826298        1.4712687887        0.8961530910
 H          3.5760935190       -1.2114042308       -0.6047768609
 H          2.6097131983       -3.4359492601       -1.0683242027
 H          0.2759005781       -3.9234755097       -0.4958327833
 H         -1.6190718615       -2.0059984509        1.8156978980
 C         -2.0123581819       -3.6433821797        0.5360441967
 C         -3.4578556620       -3.9549289490        0.2910918563
 C         -2.4506455720       -4.1701950785       -0.7963739438
 H         -2.1888978123       -5.1855949084       -1.0560087446
 H         -2.4375900517       -3.4883742379       -1.6316852133
 H         -3.8855806724       -4.8184794893        0.7780651256
 H         -4.1412363117       -3.1231224387        0.1983429969
 H         -1.4782408622       -4.3351252904        1.1805054862
