  62
        -98.94702636
 C          2.2185160443        0.7204135057       -0.4971451959
 C          1.4690386380       -0.2811953022       -1.1591456326
 C          1.8980632080       -1.6690823966       -0.9304671865
 C          2.9353070554       -1.9187262317       -0.1130400534
 C          3.4419288571       -3.2846709192        0.2470015445
 C          2.7636818802       -3.8193290610        1.5155098664
 C          1.2380087343       -3.7172724287        1.4971183869
 H          0.8713257174       -4.1712575655        2.4209708427
 H          0.9394256842       -2.6659409623        1.5238018859
 C          0.5676442293       -4.3955441250        0.2943059402
 H         -0.2946614887       -4.9626396097        0.6515454047
 H          1.2568513164       -5.1049882135       -0.1665016331
 C          0.0508975454       -3.4180901693       -0.7629331718
 H         -0.5296790704       -2.6362764082       -0.2666801142
 H         -0.6238153649       -3.9602376694       -1.4314652042
 C          1.1268565953       -2.7523877287       -1.6311336991
 H          1.8039571128       -3.5128598813       -2.0263951093
 H          0.6248121014       -2.2685256531       -2.4739252240
 H          3.0567064416       -4.8628457915        1.6480378146
 H          3.1330322684       -3.2510129798        2.3725111627
 H          3.2637974753       -3.9629680631       -0.5852632380
 H          4.5168694429       -3.2152399117        0.4239216192
 O          3.6306756549       -0.9350943970        0.5132074848
 C          3.2831186017        0.3934890253        0.3483746366
 O          4.0000971403        1.1896576125        0.9895846296
 O          0.4899526122       -0.0562082901       -1.9197488490
 C          1.9062731713        2.2079651104       -0.5822812609
 C          0.8737240665        2.5697019688        0.4598061181
 C          1.1336385167        3.5454188693        1.4141385695
 C          0.2018200739        3.8321314449        2.3960446390
 C         -0.9867178695        3.1288875045        2.4617686310
 C         -1.2563562612        2.1490673176        1.5113666833
 C         -0.3430854232        1.9031054093        0.4981204491
 H         -0.5619073603        1.1518875299       -0.2409002317
 N         -2.4464240015        1.4090413693        1.5663480551
 S         -2.4560183282       -0.2564548314        1.3108408546
 O         -3.3060425358       -0.7830909050        2.3616205012
 O         -1.1187973825       -0.7904179268        1.2499575450
 C         -3.3246873458       -0.4226280404       -0.2355544107
 C         -4.7063123099       -0.3967381648       -0.1839134505
 C         -5.4280679758       -0.4943927151       -1.3612684072
 C         -4.7593856222       -0.6161053049       -2.5704189168
 C         -3.3745810867       -0.6416297346       -2.6054552963
 C         -2.6446660088       -0.5429598963       -1.4296627878
 H         -1.5654615727       -0.5556563845       -1.4453192784
 H         -2.8480501936       -0.7345013052       -3.5419838582
 H         -5.3191270227       -0.6922401303       -3.4894107090
 H         -6.5056867555       -0.4757064179       -1.3336841493
 H         -5.1840366735       -0.3154246026        0.7784005638
 H         -3.0349082073        1.6405769730        2.3537635484
 H         -1.7006199281        3.3285880538        3.2470053953
 H          0.4129331592        4.5935570846        3.1317505487
 H          2.0808746169        4.0642788850        1.3964677038
 H          2.8399971950        2.7231421278       -0.3166784979
 C          1.4782650249        2.6769870996       -1.9583509767
 C          1.6782934576        4.1150104673       -2.3276481310
 C          2.5236839589        3.0528418375       -2.9628781071
 H          2.3535928706        2.8040683060       -3.9994170053
 H          3.5580501872        2.9747430896       -2.6600955860
 H          0.9251233626        4.6005349177       -2.9287332579
 H          2.1421797346        4.7608824402       -1.5974868069
 H          0.5913353634        2.1802009586       -2.3269724997
