  62
        -98.93222175
 C         -2.2832631640       -1.2393509113        0.0819023213
 C         -3.1493867208       -0.6128430777        1.0128675086
 C         -4.1357899036        0.3456624389        0.4828067499
 C         -4.1514730399        0.5951718077       -0.8384197686
 C         -5.0509936097        1.5214823159       -1.6168918712
 C         -5.2995334707        2.9097694492       -1.0070105065
 C         -6.7237759669        3.0968429120       -0.4814632673
 H         -7.4168099963        2.6198934716       -1.1776777431
 H         -6.9551708832        4.1642917341       -0.4719003510
 C         -6.9714070693        2.5583016873        0.9264819845
 H         -8.0438341763        2.6283620400        1.1229099033
 H         -6.4660063346        3.1991501521        1.6521724823
 C         -6.5226504471        1.1147531896        1.1635708551
 H         -6.7618831036        0.4934698501        0.3012621464
 H         -7.0947488315        0.7222699949        2.0069225537
 C         -5.0321307578        0.9818367607        1.5098679083
 H         -4.9158412069        0.3564482960        2.4004882384
 H         -4.6221422830        1.9603726900        1.7763964687
 H         -5.1287127486        3.6518953953       -1.7886070812
 H         -4.5756978472        3.1018290659       -0.2164222236
 H         -4.5736456681        1.6247678230       -2.5940918101
 H         -6.0043245874        1.0157184111       -1.7889686061
 O         -3.2992194044       -0.0280383842       -1.7000589958
 C         -2.3512062916       -0.9495551602       -1.2801791728
 O         -1.6584312362       -1.4059922749       -2.2098838510
 H          0.1889143807       -0.6947495143       -1.0171285882
 C          0.6728992218       -0.8266813538       -0.0601695387
 C          0.0498132350       -1.5908739421        0.9167558341
 C          0.6944437645       -1.7639013760        2.1357429324
 C          1.9313045228       -1.1866453152        2.3659695501
 C          2.5478227076       -0.4248694794        1.3896499695
 C          1.9118022967       -0.2452200043        0.1680699681
 N          2.5219676731        0.5371602208       -0.8288025080
 S          4.1054655111        0.1653953645       -1.2502931150
 O          4.2632837119        0.6436493151       -2.6061652975
 O          4.3983835081       -1.2306897111       -1.0218527979
 C          5.0810620727        1.1821925032       -0.1619407585
 C          4.8331830282        2.5409891632       -0.1489597286
 C          5.5895853266        3.3510675955        0.6825905544
 C          6.5773458670        2.7923530540        1.4802998458
 C          6.8159266798        1.4268984615        1.4533880007
 C          6.0619107082        0.6105158229        0.6243940519
 H          6.2075772837       -0.4567651341        0.5745375568
 H          7.5841199732        0.9947595271        2.0742398939
 H          7.1644988508        3.4254903694        2.1265805995
 H          5.4067608109        4.4133310367        0.7061944805
 H          4.0582951612        2.9342283518       -0.7858117623
 H          1.9523959886        0.6379883750       -1.6571763086
 H          3.5110029104        0.0267095262        1.5626094880
 H          2.4206248694       -1.3295431104        3.3171613211
 H          0.2150650197       -2.3477404008        2.9077397278
 C         -1.2856128025       -2.2356285845        0.6453007209
 H         -1.7101396690       -2.5334548730        1.6169934499
 C         -1.1641091001       -3.4968387414       -0.2004989321
 C          0.0487840582       -3.8503258362       -1.0030526827
 C         -0.2715888036       -4.6183549637        0.2420801178
 H         -0.6285890982       -5.6327124732        0.1495884067
 H          0.3534692105       -4.4443911263        1.1049206036
 H          0.8945848232       -3.1800014530       -0.9870087465
 H         -0.1074938831       -4.3194779047       -1.9626771915
 H         -2.1177245839       -3.7800417735       -0.6352670821
 O         -3.1061695888       -0.8549394578        2.2490467988
