  62
        -98.93278221
 C         -1.9689247563       -1.3911278073       -0.4039017300
 C         -1.7474248394       -0.1470899118        0.2347404882
 C         -2.9286157222        0.4614827162        0.8618537622
 C         -4.1119760171       -0.1767570006        0.8296422096
 C         -5.3966652254        0.3081041246        1.4450143395
 C         -6.1775031013        1.2964249391        0.5676369110
 C         -5.5682595207        2.6950349602        0.4594837829
 H         -5.3709716623        3.0823250343        1.4595885877
 H         -6.3241902684        3.3386161377        0.0050136367
 C         -4.2883177299        2.7643243309       -0.3849962766
 H         -4.3497589467        3.6134238912       -1.0693526235
 H         -4.2087229920        1.8637901194       -0.9982121090
 C         -3.0017674607        2.9259883976        0.4246649159
 H         -3.0075557216        3.8917063994        0.9348595501
 H         -2.1593183680        2.9160524668       -0.2712133523
 C         -2.7715919221        1.8239725153        1.4667706496
 H         -3.4559618198        1.9505511684        2.3053530379
 H         -1.7466834818        1.9065307846        1.8375994568
 H         -7.1776970332        1.3914220002        0.9967350219
 H         -6.2848389902        0.8672593021       -0.4313099663
 H         -5.1893098933        0.7645527465        2.4134741007
 H         -6.0181955126       -0.5758588655        1.6040844929
 O         -4.2744771759       -1.3877036156        0.2309941289
 C         -3.2178661576       -2.0106004915       -0.4144864549
 O         -3.5091833393       -3.1028643480       -0.9447457705
 O         -0.6323017481        0.4258210279        0.2889616735
 C         -0.8300059331       -2.0980793168       -1.1315673260
 C          0.3802835406       -2.1176674915       -0.2278423075
 C          0.1713469019       -2.6693028184        1.0392113855
 C          1.1767974684       -2.7231030850        1.9822027669
 C          2.4433034217       -2.2493484653        1.6844950779
 C          2.6751020314       -1.7222914570        0.4249570969
 C          1.6545691243       -1.6574638074       -0.5195301293
 H          1.8894610435       -1.2143300834       -1.4710078963
 N          3.9723856549       -1.2609976982        0.1085447215
 S          4.5135415760        0.1410428826        0.8497287590
 O          5.9252522548        0.2267154459        0.5493824092
 O          4.1552691208        0.0988388646        2.2436733632
 C          3.6563221409        1.4622949046        0.0112560559
 C          2.3019137066        1.6184549107        0.2253058908
 C          1.6232116184        2.5998039219       -0.4796319578
 C          2.3046908856        3.4068552935       -1.3768663470
 C          3.6673815250        3.2402489303       -1.5766636794
 C          4.3506658596        2.2551159662       -0.8826080673
 H          5.4076136447        2.0851658523       -1.0104401290
 H          4.1957380151        3.8696747957       -2.2747092109
 H          1.7700689847        4.1673259292       -1.9243458537
 H          0.5605393009        2.6990606982       -0.3268863706
 H          1.7779880811        0.9755626444        0.9138799984
 H          4.1445625753       -1.1902034071       -0.8850834155
 H          3.2403516133       -2.2668384133        2.4093073721
 H          0.9761557485       -3.1413244794        2.9573791036
 H         -0.8141721400       -3.0451191516        1.2819615617
 H         -1.1580489383       -3.1461762971       -1.2359613262
 C         -0.7818803202       -1.5372513882       -2.5462938607
 C         -0.0484574018       -0.3018945716       -2.9655559727
 C          0.3610865146       -1.6399627560       -3.5110786346
 H          0.1185621421       -1.8549971134       -4.5416634765
 H          1.2821512714       -2.0959363695       -3.1880929343
 H         -0.5567630848        0.3819649061       -3.6300745033
 H          0.5641793224        0.1977959787       -2.2320952277
 H         -1.7675792777       -1.6652977983       -2.9904689213
