  62
        -98.93967187
 C         -2.6509381370       -1.3041810945        0.3415562141
 C         -2.8794362799       -0.5141738168       -0.8119435309
 C         -3.8679158683        0.5672299310       -0.6640446100
 C         -4.4880015155        0.7472865809        0.5153696415
 C         -5.4633425423        1.8470674085        0.8169280616
 C         -4.7491726164        3.0812478983        1.3856753038
 C         -3.5352811817        3.5236658055        0.5684895477
 H         -3.1320062471        4.4199324440        1.0446376137
 H         -2.7634514097        2.7527414560        0.6300602120
 C         -3.8378545690        3.8211831030       -0.9068468254
 H         -4.9093241636        3.9721657042       -1.0424772605
 H         -3.3414292984        4.7531117831       -1.1855075680
 C         -3.3509218115        2.7490373204       -1.8835205140
 H         -3.4181769047        3.1555779915       -2.8963217026
 H         -2.2977698468        2.5291821582       -1.6899450684
 C         -4.1302761316        1.4277569372       -1.8684425357
 H         -3.8055150438        0.8414250615       -2.7332263891
 H         -5.1981809732        1.6295848508       -1.9725504796
 H         -5.4687413541        3.8998469067        1.4439671531
 H         -4.4133428762        2.8502628104        2.3991774724
 H         -5.9992541869        2.1107897042       -0.0927607338
 H         -6.1777464167        1.4793120007        1.5552799252
 O         -4.2532009269       -0.0374150175        1.5972058479
 C         -3.3324924886       -1.0681740843        1.5401377559
 O         -3.2137386491       -1.7047284099        2.6057216437
 O         -2.2970774534       -0.6790266734       -1.9163977053
 C         -1.6669172319       -2.4633024803        0.3772013756
 C         -0.2670878536       -1.9797627809        0.6582525030
 C          0.4922719029       -2.5359786301        1.6804854540
 C          1.7799667848       -2.0895821535        1.9226558332
 C          2.3344625307       -1.0814530691        1.1545718685
 C          1.5850742107       -0.5209600801        0.1281943324
 C          0.2951011126       -0.9716202422       -0.1129679286
 H         -0.2803264540       -0.5423499260       -0.9201856607
 N          2.1304341616        0.5127598295       -0.6524024335
 S          3.6626939229        0.2931640184       -1.3024462122
 O          3.7089155702        1.1498073249       -2.4667441449
 O          3.9481955569       -1.1060297022       -1.5208386408
 C          4.7489721243        0.9523866068       -0.0551130897
 C          5.7814704669        0.1801436501        0.4396624442
 C          6.6191099100        0.7196287259        1.4037069536
 C          6.4108487600        2.0147286531        1.8525354282
 C          5.3708733607        2.7782681726        1.3431967332
 C          4.5308325356        2.2454031218        0.3786820189
 H          3.7139323343        2.8058708994       -0.0445835519
 H          5.2119515906        3.7851126309        1.6944978622
 H          7.0628285475        2.4319337079        2.6036377357
 H          7.4283618279        0.1280437748        1.8005746897
 H          5.9017395925       -0.8238643529        0.0648287492
 H          1.4932012305        0.8617320184       -1.3540585879
 H          3.3365864429       -0.7303968665        1.3390576307
 H          2.3583430893       -2.5297479375        2.7204794309
 H          0.0626907669       -3.3156304067        2.2924662535
 H         -1.9823831111       -3.0773705316        1.2350072024
 C         -1.7521220809       -3.3450096823       -0.8632947772
 C         -0.6511302581       -3.4859033652       -1.8674671013
 C         -0.9568861659       -4.6150860604       -0.9327257278
 H         -1.4291881774       -5.5028924765       -1.3248970573
 H         -0.2533898728       -4.8027193424       -0.1354129630
 H         -0.9323691394       -3.5771021349       -2.9058016001
 H          0.2631794457       -2.9325427535       -1.7168053536
 H         -2.7621709000       -3.3858727846       -1.2584981498
