  62
        -98.94136511
 C          1.7324987943        1.0938353880        0.2957811009
 C          2.3035687364        0.0781965562        1.1022908355
 C          3.7320745676       -0.1817239221        0.8972093443
 C          4.4186941594        0.5467493266       -0.0017004977
 C          5.8846753312        0.4139443710       -0.3138688728
 C          6.2089945060       -0.6944724151       -1.3250467539
 C          6.0797191879       -2.1217887558       -0.7911770933
 H          6.5436633877       -2.7815755818       -1.5271540686
 H          6.6496452670       -2.2151481749        0.1338142578
 C          4.6343089877       -2.5828517893       -0.5571280104
 H          3.9500426255       -1.9218353049       -1.0940207190
 H          4.5007121181       -3.5850406267       -0.9704611690
 C          4.2162524134       -2.6392601276        0.9122001449
 H          3.1664143306       -2.9391740558        0.9579398205
 H          4.8068987937       -3.3965327073        1.4324655897
 C          4.3609433814       -1.3078812925        1.6608243453
 H          5.4124009522       -1.0966721689        1.8544908110
 H          3.8389567750       -1.3930959473        2.6170789762
 H          5.5627152468       -0.5713195987       -2.1973062774
 H          7.2402543565       -0.5442603807       -1.6528646244
 H          6.4420712537        0.2424032256        0.6074609917
 H          6.1999407977        1.3697795252       -0.7379470260
 O          3.8408922706        1.5297698071       -0.7415807163
 C          2.4857845910        1.8180189235       -0.6299048871
 O          2.0956972410        2.7168145935       -1.3982066694
 O          1.6476429552       -0.5768549864        1.9563789777
 C          0.2601800345        1.3879798793        0.4777179604
 C         -0.6099002354        0.9095810489       -0.6630520018
 C         -0.1045675809        0.2617301357       -1.7827905836
 C         -0.9511681223       -0.1839620167       -2.7828076891
 C         -2.3211788344       -0.0358393663       -2.6678899178
 C         -2.8403383811        0.5938749333       -1.5433639243
 C         -1.9850212786        1.0811088517       -0.5669020676
 H         -2.4138897946        1.5867490393        0.2822240458
 N         -4.2280254435        0.7107154749       -1.3430084770
 S         -4.8118168224        0.1690935204        0.1365953622
 O         -6.1952783274       -0.1698314920       -0.1118194496
 O         -4.5757006764        1.1621175780        1.1521166409
 C         -3.8488027483       -1.2981318884        0.4568713562
 C         -2.7686935931       -1.2380145299        1.3137813685
 C         -1.9533455377       -2.3504220585        1.4483002031
 C         -2.2392194196       -3.5030543584        0.7332515846
 C         -3.3395668768       -3.5557353148       -0.1094637566
 C         -4.1473784872       -2.4407012610       -0.2595231600
 H         -5.0091964889       -2.4416714502       -0.9071996690
 H         -3.5615694921       -4.4577511315       -0.6566586186
 H         -1.5987286772       -4.3648962900        0.8358695672
 H         -1.0893703523       -2.3007973344        2.0929267744
 H         -2.5797028612       -0.3300770147        1.8623260756
 H         -4.7847094770        0.3400580671       -2.1002921932
 H         -2.9809901239       -0.4050600790       -3.4378768484
 H         -0.5374025293       -0.6708851772       -3.6528283586
 H          0.9614827933        0.1137887110       -1.8737144350
 H         -0.0359454879        0.8128945605        1.3688737105
 C          0.0185444149        2.8610135657        0.7592761645
 C         -0.9939437076        3.2974345997        1.7738705750
 C          0.4684467841        3.4379962418        2.0675784669
 H          0.9072785212        4.4242291269        2.0735228157
 H          0.9110247766        2.7593277201        2.7825689502
 H         -1.5690679979        4.1889752368        1.5741355529
 H         -1.5441858109        2.5382134823        2.3102762720
 H          0.1480302267        3.4795091984       -0.1211122124
