  62
        -98.94123992
 C         -1.7845826220       -0.0548528596        0.3930066550
 C         -2.9317638742       -0.4263641143        1.1434039480
 C         -4.1924866929        0.2331495806        0.7808866454
 C         -4.1860670489        1.1773538170       -0.1768832685
 C         -5.4026378375        1.8963654097       -0.6815406370
 C         -6.0248137099        1.1614772270       -1.8772123842
 C         -6.2304610659       -0.3353627926       -1.6438438913
 H         -6.7033881639       -0.7419693027       -2.5404283398
 H         -5.2553331397       -0.8185550749       -1.5485866189
 C         -7.0862940815       -0.6751684078       -0.4155212215
 H         -7.6575588661        0.2015661269       -0.1082237240
 H         -7.8051218530       -1.4489627585       -0.6932489216
 C         -6.2963850536       -1.2097838809        0.7806837276
 H         -7.0084035829       -1.6183936046        1.5026208477
 H         -5.6528211678       -2.0315613269        0.4563796744
 C         -5.4316309851       -0.1826294779        1.5224099428
 H         -5.0842739392       -0.6475794367        2.4497220912
 H         -6.0365038266        0.6887800176        1.7813462062
 H         -6.9826336902        1.6302911095       -2.1100299940
 H         -5.3669501895        1.2863942662       -2.7405585161
 H         -5.1045555472        2.8978865979       -0.9965100872
 H         -6.1289838702        1.9810947719        0.1245025543
 O         -3.0602454193        1.5534135602       -0.8312308891
 C         -1.8342618710        0.9451800543       -0.5801721415
 O         -0.9085598364        1.3901993269       -1.2828848685
 O         -2.9008154119       -1.2729090101        2.0754416315
 C         -0.4795535705       -0.7486463099        0.7448494423
 C          0.6173518545        0.2586074266        0.9656201998
 C          0.7175210300        0.9174214119        2.1868103380
 C          1.7209578467        1.8417855059        2.4149997745
 C          2.6434110103        2.1338818355        1.4249852990
 C          2.5387666431        1.4946038651        0.1986931252
 C          1.5425434445        0.5550621564       -0.0230477302
 H          1.4696877036        0.0708043789       -0.9845077882
 N          3.4983328783        1.7727698455       -0.8073272422
 S          4.9670113281        1.0112503486       -0.5419776347
 O          5.5731416369        1.5771574722        0.6356599287
 O          5.7157459172        1.1314171487       -1.7724251288
 C          4.5248200369       -0.6918897957       -0.2458696730
 C          4.4007871251       -1.5448439982       -1.3243342640
 C          3.9509889296       -2.8374505444       -1.1085214103
 C          3.6206247976       -3.2474051898        0.1743389191
 C          3.7484671820       -2.3778065314        1.2468108187
 C          4.2028084408       -1.0856510306        1.0375980120
 H          4.3147671112       -0.3796454390        1.8441698210
 H          3.4868044630       -2.6981284738        2.2425368871
 H          3.2603466796       -4.2508716371        0.3397304723
 H          3.8519081784       -3.5175054375       -1.9394603753
 H          4.6673329047       -1.1855298816       -2.3056108099
 H          3.1642723962        1.5383755121       -1.7322403432
 H          3.4441290380        2.8375148180        1.5854924769
 H          1.7867979653        2.3390750324        3.3708575896
 H         -0.0046958004        0.6959418485        2.9604486295
 H         -0.6895883740       -1.2392719434        1.7087338769
 C         -0.0618280416       -1.8502675563       -0.2192283852
 C         -1.0838438311       -2.7733077477       -0.8095936632
 C         -0.3482414335       -1.8091977732       -1.6890884476
 H          0.4001153585       -2.2006504152       -2.3629277934
 H         -0.8811237804       -0.9564944304       -2.0800362523
 H         -0.8505351808       -3.8243142060       -0.8851691724
 H         -2.1214273939       -2.5699595257       -0.5874228083
 H          0.8838507113       -2.2965915205        0.0743138704
