  62
        -98.93798015
 C         -2.4319403871       -0.3769528869        0.4692841473
 C         -3.2198620462       -0.3355897329       -0.7081804181
 C         -4.3321135795        0.6274167201       -0.6931996681
 C         -4.5167817458        1.4324537453        0.3673167395
 C         -5.5881486459        2.4788057720        0.5126403047
 C         -6.9333333786        1.9287409817        1.0063975148
 C         -7.7163996229        1.1071234509       -0.0185250784
 H         -8.7231100750        0.9714302648        0.3818405582
 H         -7.8084160803        1.6756559582       -0.9444288963
 C         -7.1146873825       -0.2731474325       -0.3174461628
 H         -6.4089545886       -0.5413524890        0.4723182791
 H         -7.9065939976       -1.0255702831       -0.3069962576
 C         -6.4081867013       -0.3777002195       -1.6691669208
 H         -5.9899033920       -1.3833924522       -1.7604470019
 H         -7.1345977854       -0.2414203355       -2.4733776433
 C         -5.2673775329        0.6293246561       -1.8648715275
 H         -4.6953940707        0.3319878573       -2.7470932361
 H         -5.6710501483        1.6280575814       -2.0289425781
 H         -6.7569232951        1.3248539118        1.8996316685
 H         -7.5469512625        2.7836589831        1.2996985466
 H         -5.2206191958        3.1994051258        1.2463722155
 H         -5.7308049598        2.9929510527       -0.4381815498
 O         -3.7075757095        1.3954849204        1.4600750170
 C         -2.6718163831        0.4821032365        1.5452967478
 O         -2.0388805559        0.5276504315        2.6205199104
 O         -3.0247764196       -1.0483273593       -1.7243743073
 C         -1.2746460800       -1.3433621156        0.6618426113
 C          0.0078861298       -0.7641936583        0.1230113435
 C          0.0990899719       -0.2964139346       -1.1842983089
 C          1.2907436161        0.2181044487       -1.6614725493
 C          2.4097387510        0.2828039713       -0.8492635549
 C          2.3281274269       -0.1753143672        0.4583754432
 C          1.1313420897       -0.6965130866        0.9336354742
 H          1.0689889796       -1.0429875956        1.9569285090
 N          3.4574827967       -0.0961599204        1.2909942730
 S          4.9014789165       -0.7424878844        0.7271875687
 O          4.6647540262       -1.8271110487       -0.1968899939
 O          5.6602893116       -1.0638337170        1.9159701648
 C          5.6852243081        0.6178524122       -0.1114425260
 C          6.0998264957        0.4712661876       -1.4206347716
 C          6.7221444282        1.5384645343       -2.0496431035
 C          6.9185135875        2.7259363852       -1.3615026916
 C          6.4975490243        2.8561926221       -0.0462461775
 C          5.8758262641        1.7930345471        0.5887648883
 H          5.5370996694        1.8529466560        1.6096634941
 H          6.6516645679        3.7815171302        0.4851560572
 H          7.4025853140        3.5550453582       -1.8530441791
 H          7.0500855636        1.4393328263       -3.0719360366
 H          5.9208322786       -0.4688879775       -1.9176804313
 H          3.2834593399       -0.3843509687        2.2430933589
 H          3.3395964521        0.6840866374       -1.2180450957
 H          1.3493456817        0.5747475732       -2.6786532103
 H         -0.7715829583       -0.3481421785       -1.8202006735
 H         -1.1601291226       -1.4349349272        1.7539473934
 C         -1.5702659584       -2.7386622082        0.1268894288
 C         -0.8883236954       -3.3448105052       -1.0586220202
 C         -0.5676076597       -3.8386068740        0.3179992429
 H         -0.9173715664       -4.8148275014        0.6181070357
 H          0.3941078268       -3.5688244252        0.7300298468
 H         -1.4827378274       -3.9661774866       -1.7107810253
 H         -0.1408517530       -2.7642799591       -1.5754634035
 H         -2.6126365488       -3.0079371082        0.2650954099
