  62
        -98.94726002
 C          0.9442719366        1.5512727617       -0.8642539753
 C          2.2486402730        1.5258242427       -0.3058976727
 C          3.0467249614        0.3235973529       -0.5602072348
 C          2.5266670460       -0.6739138373       -1.2967020753
 C          3.1946474283       -1.9829179423       -1.6181451574
 C          3.0482983028       -3.0273344327       -0.5025930092
 C          3.9242780412       -2.7870258644        0.7275929711
 H          3.9131680417       -3.7089375033        1.3127482212
 H          4.9542443908       -2.6104104802        0.4143515367
 C          3.4479787745       -1.6345955617        1.6232863295
 H          2.4017693817       -1.4067804430        1.4014708395
 H          3.4820842310       -1.9518191987        2.6688063254
 C          4.2803651513       -0.3562803279        1.5145627579
 H          5.2889357905       -0.5444372554        1.8911696516
 H          3.8184804125        0.4036317968        2.1502380337
 C          4.3899251676        0.2164894195        0.0959031974
 H          4.8063504987        1.2246431799        0.1669404325
 H          5.0592212849       -0.3973735622       -0.5068040889
 H          3.3075650331       -4.0010214111       -0.9257156766
 H          2.0015441359       -3.0642580524       -0.1882776139
 H          4.2516824337       -1.8192659829       -1.8299933236
 H          2.7137865596       -2.3675605130       -2.5202446088
 O          1.2960391243       -0.5940765346       -1.8599190472
 C          0.4584777394        0.4894497696       -1.6278380768
 O         -0.6581055183        0.3683617571       -2.1700582178
 O          2.7236049617        2.4728309528        0.3788026213
 C          0.0696437589        2.7295533514       -0.4686959192
 C         -0.6667743283        2.3773380006        0.8042625458
 C         -0.6854139922        3.2330692452        1.8988765184
 C         -1.2991441657        2.8496882158        3.0788807353
 C         -1.8667607219        1.5939852623        3.2039434129
 C         -1.8543075886        0.7334203957        2.1124897487
 C         -1.2979843241        1.1474153194        0.9133557605
 H         -1.3165008867        0.4769759525        0.0701167828
 N         -2.3803863915       -0.5650706132        2.1856769190
 S         -1.5742268388       -1.7981881224        1.3789815687
 O         -1.9432259062       -2.9985627484        2.1053838161
 O         -0.1552314781       -1.5435207964        1.2844468834
 C         -2.3243535289       -1.8791718045       -0.2311345435
 C         -3.6360023699       -1.4815160366       -0.3932309267
 C         -4.2213384955       -1.6074691395       -1.6423350579
 C         -3.4932222731       -2.1325975622       -2.6986094021
 C         -2.1793491211       -2.5318916023       -2.5172281191
 C         -1.5872396896       -2.4052466039       -1.2715922077
 H         -0.5599529399       -2.6846140250       -1.0963055148
 H         -1.6076471372       -2.9292854550       -3.3404984428
 H         -3.9493630325       -2.2254396901       -3.6717659819
 H         -5.2418198431       -1.2915409000       -1.7892480790
 H         -4.1699843630       -1.0700439574        0.4473687332
 H         -2.6856524366       -0.8568238794        3.1029666459
 H         -2.3049680577        1.2773580545        4.1381237717
 H         -1.3081505472        3.5235564765        3.9221368669
 H         -0.1945660047        4.1924530381        1.8306468712
 H          0.7635149004        3.5492147839       -0.2356758883
 C         -0.8924746258        3.2023500388       -1.5386531689
 C         -1.3871616725        4.6163061437       -1.4998479379
 C         -0.4230485037        4.1882447052       -2.5643489089
 H         -0.7795023119        4.0830982372       -3.5776522556
 H          0.5990224781        4.5315134823       -2.4952243823
 H         -2.4107654245        4.8094656019       -1.7810381570
 H         -1.0188376631        5.2563847714       -0.7126883449
 H         -1.5807067444        2.4341437065       -1.8652012382
