  62
        -98.93887280
 C         -2.0966053802       -0.9830859203       -0.0403070396
 C         -2.8471583702       -0.5240850098        1.0723496702
 C         -3.5730329000        0.7465860502        0.9134421597
 C         -3.4674970599        1.4125580098       -0.2491558406
 C         -4.1437255498        2.6978111597       -0.6392407511
 C         -5.4662737098        2.4189837096       -1.3735792410
 C         -6.6841333099        2.2529593800       -0.4655476810
 H         -6.9462861298        3.2225707302       -0.0371843514
 H         -7.5181879999        1.9366013399       -1.0960622309
 C         -6.5173937900        1.2434300505        0.6730519394
 H         -6.0133602501        0.3498343903        0.3005700698
 H         -7.5137161400        0.9403964107        1.0003710095
 C         -5.7501992999        1.8114943308        1.8763550892
 H         -6.3265755100        1.6386097013        2.7875284693
 H         -5.6626676598        2.8921447008        1.7666614688
 C         -4.3609333700        1.2021965208        2.1114950095
 H         -3.7496872300        1.9125447709        2.6785027592
 H         -4.4560652001        0.3081692910        2.7357966798
 H         -5.3300667999        1.5179283593       -1.9771994207
 H         -5.6655911197        3.2443714493       -2.0600471113
 H         -3.4641170597        3.2081987194       -1.3253017313
 H         -4.3007287498        3.3296606401        0.2299091187
 O         -2.7293079100        0.9437103293       -1.2911332604
 C         -2.0275731501       -0.2470848007       -1.2226408999
 O         -1.4094302601       -0.5167680012       -2.2733885898
 O         -2.9161569203       -1.1608947293        2.1576647604
 C         -1.3300848403       -2.2844700003        0.1422321409
 C          0.1143579697       -1.9655003203        0.4443895608
 C          0.6218077296       -2.1120222699        1.7303720609
 C          1.9269916497       -1.7536894099        2.0189986608
 C          2.7478923798       -1.2308234704        1.0355124606
 C          2.2456414498       -1.0707433108       -0.2488505095
 C          0.9463171898       -1.4531976808       -0.5414536994
 H          0.5592971298       -1.3027076411       -1.5383162094
 N          3.0634552099       -0.4908896413       -1.2464301297
 S          3.4207596000        1.1355324788       -0.9795135403
 O          2.3765821201        1.7880384492       -0.2206445406
 O          3.7134782601        1.6898084082       -2.2835370605
 C          4.9224275100        1.0767145590       -0.0240203603
 C          4.9352626700        1.5594768695        1.2698195695
 C          6.1146556300        1.4974542097        1.9958845196
 C          7.2533818900        0.9570893693        1.4180079498
 C          7.2243888899        0.4789817288        0.1162052600
 C          6.0489307700        0.5384607387       -0.6152058200
 H          5.9821135200        0.1846521283       -1.6303959999
 H          8.1121690699        0.0605092285       -0.3298364298
 H          8.1691169400        0.9092062594        1.9857797099
 H          6.1388507000        1.8691840400        3.0076713394
 H          4.0234119001        1.9660429598        1.6773904994
 H          2.6585184799       -0.5812624216       -2.1690966897
 H          3.7624604298       -0.9401618904        1.2545148305
 H          2.3068479496       -1.8755147895        3.0218222708
 H         -0.0248461804       -2.4886080295        2.5096150710
 H         -1.7651506204       -2.7503256199        1.0363853911
 C         -1.4755574604       -3.2455249207       -1.0196018887
 C         -1.1659457106       -4.6954466707       -0.8019338582
 C         -2.5838551205       -4.2534305306       -1.0009479284
 H         -3.0758577005       -4.4930289109       -1.9316764583
 H         -3.2440277705       -4.2546555902       -0.1459020384
 H         -0.6813684806       -5.2427775210       -1.5956669679
 H         -0.8644495006       -4.9972286003        0.1896042820
 H         -1.2192212903       -2.8126195711       -1.9775922089
