  62
        -98.94418568
 C          1.9761090932        1.2989618000        0.0469594456
 C          2.2946258410        0.3333184670       -0.9383689068
 C          3.6978746365       -0.1079219292       -0.9749696675
 C          4.5816622904        0.4106042011       -0.1039246976
 C          6.0264610299        0.0172572279       -0.0057106071
 C          6.2268300088       -1.1271272117        0.9974511683
 C          5.2684962617       -2.3009147606        0.7954091668
 H          5.5238447543       -3.0605463943        1.5374800737
 H          4.2493990028       -1.9716859055        1.0119852320
 C          5.3121782204       -2.9223981064       -0.6075925063
 H          6.2343752568       -2.6328217995       -1.1128146804
 H          5.3251166429       -4.0098706099       -0.5081924055
 C          4.1165646782       -2.5708666238       -1.4950144900
 H          3.1878153073       -2.7712589758       -0.9542807737
 H          4.1356665580       -3.2304309549       -2.3668865076
 C          4.0723976475       -1.1278857239       -2.0134871666
 H          5.0283870335       -0.8741340375       -2.4759441337
 H          3.2947344268       -1.0747880556       -2.7809630702
 H          6.0781972551       -0.7342474485        2.0059143947
 H          7.2571805933       -1.4786570595        0.9184334895
 H          6.5960908186        0.8856444052        0.3296401256
 H          6.3840669139       -0.2811905470       -0.9892832115
 O          4.2406016082        1.3355717891        0.8282884214
 C          2.9390078352        1.7910049139        0.9344252960
 O          2.7642769790        2.6298634104        1.8403318328
 O          1.4688430725       -0.1427366913       -1.7623176875
 C          0.5721284059        1.8597100607        0.2199811593
 C         -0.3158973585        0.8318325242        0.8785744083
 C         -0.5462057519        0.8835304426        2.2491909862
 C         -1.3581962998       -0.0518822237        2.8658794219
 C         -1.9562510381       -1.0586528128        2.1285656143
 C         -1.7235134258       -1.1234695411        0.7612871136
 C         -0.9160182476       -0.1797690300        0.1427691734
 H         -0.7231744651       -0.2523353711       -0.9163798703
 N         -2.3378933395       -2.1426302511        0.0009121470
 S         -4.0133379632       -2.1016061203       -0.0274368867
 O         -4.5166819225       -2.5287293602        1.2534871029
 O         -4.4077510326       -2.8983369506       -1.1667670632
 C         -4.4023754335       -0.3824278549       -0.2977023942
 C         -4.3730437990        0.1015102066       -1.5903728784
 C         -4.5867888125        1.4531359839       -1.8050897669
 C         -4.8105865360        2.2958131994       -0.7270229769
 C         -4.8345877976        1.7944025395        0.5649096995
 C         -4.6284993985        0.4421425157        0.7858006871
 H         -4.6445158773        0.0131358366        1.7740002824
 H         -5.0090814743        2.4521023369        1.4010934912
 H         -4.9676574492        3.3496361291       -0.8951918365
 H         -4.5736347736        1.8447424499       -2.8098282875
 H         -4.1977994577       -0.5870841143       -2.4015731087
 H         -1.9829294863       -2.1879954048       -0.9443061033
 H         -2.6014308716       -1.7905853094        2.5874284037
 H         -1.5280125769        0.0032973247        3.9304916191
 H         -0.0720774621        1.6621076120        2.8298787624
 H          0.6772435029        2.7022363612        0.9158449814
 C         -0.0154426116        2.3774519502       -1.0784738638
 C         -1.2455678302        3.2309030043       -1.0244420950
 C          0.0736784954        3.8390101700       -1.3928244696
 H          0.2387300378        4.1351249827       -2.4179656299
 H          0.5628838519        4.4774625768       -0.6715695246
 H         -1.9906554315        3.1086689362       -1.7949533230
 H         -1.6537729099        3.4527136865       -0.0501323114
 H          0.0853066933        1.6885735194       -1.9064413970
