  62
        -98.94512241
 C         -1.1727535123       -1.3798662638       -0.6480733446
 C         -2.5015828094       -1.5786324585       -0.1937738761
 C         -3.4281854112       -0.4567736639       -0.3874384295
 C         -2.9800019193        0.6713864771       -0.9680122692
 C         -3.7935351009        1.9184544533       -1.1560948094
 C         -3.6507158233        2.8635437075        0.0452936005
 C         -3.8423997681        2.1799467874        1.3988627189
 H         -3.0348777471        1.4604317576        1.5528988870
 H         -3.7421359437        2.9481391732        2.1687226862
 C         -5.1920995418        1.4677139795        1.5642832789
 H         -5.6013479112        1.7138880867        2.5464163736
 H         -5.8988315328        1.8340116928        0.8186890676
 C         -5.1174306316       -0.0578675934        1.4828255920
 H         -6.0739998044       -0.4644529693        1.8220435344
 H         -4.3461246672       -0.4248859233        2.1646353448
 C         -4.8421386876       -0.6364741842        0.0892450323
 H         -5.0064041306       -1.7168031630        0.1403236779
 H         -5.5478367640       -0.2160022267       -0.6300517372
 H         -4.3778153342        3.6704713145       -0.0625151295
 H         -2.6500864686        3.2984886074        0.0238482505
 H         -4.8381054753        1.6460021757       -1.2948912354
 H         -3.4386322272        2.4277481958       -2.0533616945
 O         -1.7078975092        0.8174476253       -1.4143268764
 C         -0.7700072131       -0.1956198283       -1.2670701747
 O          0.3488913191        0.0870309067       -1.7329604268
 O         -2.8941116416       -2.6463398039        0.3488684728
 C         -0.1709091407       -2.4957647515       -0.3947783924
 C          0.7081494334       -2.0655497355        0.7537756800
 C          0.3302531027       -2.3801344195        2.0566328325
 C          1.0783538602       -1.9436936775        3.1337740732
 C          2.2083561452       -1.1707468903        2.9341314220
 C          2.5892997805       -0.8442218082        1.6366484169
 C          1.8489477334       -1.3009427650        0.5548241286
 H          2.1590648518       -1.0310547246       -0.4404861443
 N          3.7254537945       -0.0559415306        1.4160423979
 S          3.9353720922        0.8835534339        0.0590150953
 O          4.2087560149        0.0538587966       -1.0875722845
 O          5.0070721629        1.7860754418        0.4342583065
 C          2.4610787773        1.8563784614       -0.1998424740
 C          2.2873301677        2.3964528881       -1.4570751216
 C          1.2047457870        3.2263268671       -1.6917618005
 C          0.3125067534        3.4988598813       -0.6682954078
 C          0.4962703913        2.9455325897        0.5878833239
 C          1.5843686031        2.1220605298        0.8310518829
 H          1.7345252308        1.6808216847        1.8034319529
 H         -0.2067963910        3.1468761611        1.3815308253
 H         -0.5340663023        4.1411999852       -0.8561342977
 H          1.0537420866        3.6462165104       -2.6734690041
 H          2.9928437925        2.1416897879       -2.2316885454
 H          4.1424695760        0.3573889368        2.2363185825
 H          2.7922986579       -0.8211577014        3.7718602401
 H          0.7768192541       -2.2003257579        4.1379550062
 H         -0.5667681448       -2.9620273845        2.2136757642
 H         -0.7719498999       -3.3521167690       -0.0596874924
 C          0.6040338751       -2.9073476971       -1.6274813242
 C          1.3094526180       -4.2295120021       -1.6300496666
 C          0.0872822191       -4.0302319915       -2.4740830958
 H          0.2038077404       -3.9628236824       -3.5453780345
 H         -0.8299432834       -4.5095939152       -2.1640621759
 H          2.2694651842       -4.2986292742       -2.1185189847
 H          1.2203886125       -4.8444721634       -0.7470424272
 H          1.0810049685       -2.0825220382       -2.1412296672
