  62
        -98.94013593
 C         -2.0308004389       -0.6450736319        0.9734825633
 C         -2.8682854503       -1.1627284896       -0.0457352125
 C         -4.2633625269       -0.6905340514       -0.0271154763
 C         -4.6610833263        0.1796103233        0.9173422900
 C         -6.0308161341        0.7860428237        1.0065900430
 C         -6.1030399554        2.1093108400        0.2317268447
 C         -5.5443423905        2.0252188879       -1.1888401390
 H         -5.6772546135        3.0069486387       -1.6487526090
 H         -4.4690552413        1.8382478647       -1.1386222602
 C         -6.2048876505        0.9545273506       -2.0685663331
 H         -7.1622670247        0.6597305191       -1.6372335968
 H         -6.4113712486        1.3869936606       -3.0498966748
 C         -5.3486815343       -0.2914999428       -2.3019332205
 H         -4.3557883228        0.0068742424       -2.6475168088
 H         -5.8113069764       -0.8764243651       -3.1013667820
 C         -5.1800137084       -1.2212005850       -1.0936381850
 H         -6.1592556286       -1.4622829389       -0.6753367009
 H         -4.7201271380       -2.1473951758       -1.4504957789
 H         -7.1451410797        2.4323478843        0.1964416338
 H         -5.5321434025        2.8628918194        0.7794342592
 H         -6.7613616213        0.0820531348        0.6128211637
 H         -6.2544377381        0.9780743733        2.0574004480
 O         -3.8307641064        0.6500163266        1.8834101821
 C         -2.5043302228        0.2599064141        1.9275726199
 O         -1.8511638819        0.7725201200        2.8597851784
 H          1.5602462980        0.4563947379        1.9053068281
 C          1.3582578606        0.5828782879        0.8501351136
 C          0.2894798527       -0.0884966050        0.2750818373
 C          0.0351606895        0.0979293022       -1.0802417370
 C          0.8279049782        0.9443385492       -1.8335744400
 C          1.8927054956        1.6139127973       -1.2557907330
 C          2.1587514439        1.4292166577        0.0938907903
 N          3.2687510534        2.0796874986        0.6717861955
 S          4.7544983287        1.6934569988       -0.0099042034
 O          5.7380433146        2.0051303722        1.0018043259
 O          4.8929938463        2.3817907557       -1.2675169050
 C          4.6511505990       -0.0667086322       -0.2750922048
 C          4.8359771220       -0.9013789882        0.8094641770
 C          4.6522924828       -2.2646243905        0.6453964380
 C          4.2739634684       -2.7658931940       -0.5908682151
 C          4.0959305775       -1.9150820770       -1.6702736050
 C          4.2856458255       -0.5511958877       -1.5147855327
 H          4.1599586953        0.1421263612       -2.3297850005
 H          3.8023919829       -2.3083586803       -2.6301780588
 H          4.1130625823       -3.8250886173       -0.7118014591
 H          4.7942976699       -2.9303664832        1.4816043139
 H          5.1296974940       -0.4727662183        1.7545809941
 H          3.3133179350        1.9748296901        1.6756512070
 H          2.5262213709        2.2713401660       -1.8292106332
 H          0.6164879326        1.0834333420       -2.8830163259
 H         -0.7858852092       -0.4348503175       -1.5350795250
 C         -0.5616019674       -1.0110209237        1.1086503146
 H         -0.3183782515       -0.8195241694        2.1655980676
 C         -0.2778640024       -2.4833974689        0.8375098171
 C          0.5753210514       -2.9697380908       -0.2920966286
 C          1.0909028873       -3.0330831174        1.1117460787
 H          1.1755005206       -3.9944101271        1.5948192351
 H          1.8599974966       -2.3274819016        1.3892361369
 H          0.2771722437       -3.8846953133       -0.7801951330
 H          1.0093354308       -2.2412133309       -0.9585575030
 H         -1.1175881902       -3.1137489486        1.1093893685
 O         -2.4938265209       -1.9722107199       -0.9312039037
