  62
        -98.93863414
 C         -2.8040149346       -0.1072462468        0.0863211418
 C         -2.1359142572       -0.8522735118        1.0886363878
 C         -1.8174473578       -2.2477946852        0.7485217440
 C         -2.1609951702       -2.7361000264       -0.4554634729
 C         -1.8730020442       -4.1290938077       -0.9343039882
 C         -0.5459077859       -4.2096710593       -1.7003303976
 C          0.6382553561       -3.5632034596       -0.9806650613
 H          1.5246941082       -3.7500101146       -1.5921940487
 H          0.5010767008       -2.4791673561       -0.9542065922
 C          0.8847635066       -4.0807221835        0.4434125232
 H          0.4006250330       -5.0491342256        0.5769720961
 H          1.9582510401       -4.2340948565        0.5742591196
 C          0.4299319187       -3.1256182623        1.5490691354
 H          0.7860049971       -2.1168897527        1.3216490407
 H          0.8934785222       -3.4407444463        2.4879189952
 C         -1.0846103600       -3.0536901986        1.7837557454
 H         -1.4971817219       -4.0619588288        1.8563288454
 H         -1.2531041220       -2.5425494026        2.7361980403
 H         -0.3262843095       -5.2625121985       -1.8904533071
 H         -0.6698704472       -3.7088640046       -2.6634942007
 H         -1.8501088381       -4.8009084060       -0.0781313485
 H         -2.6823023896       -4.4332890387       -1.6008795632
 O         -2.8072692123       -1.9948733088       -1.3921470486
 C         -3.1128433946       -0.6666625402       -1.1567622949
 O         -3.6733745272       -0.0941556873       -2.1140579494
 O         -1.8117704552       -0.3972469698        2.2174954455
 C         -3.1514896402        1.3682523946        0.2348414710
 C         -1.9621519868        2.1804756224       -0.2105087000
 C         -2.0577094685        3.1441225683       -1.2064451551
 C         -0.9253367090        3.7917060009       -1.6729789977
 C          0.3258697651        3.4772839081       -1.1716174112
 C          0.4253355278        2.5266241855       -0.1663722882
 C         -0.7097776161        1.9023963575        0.3197811839
 H         -0.6172882672        1.1590913221        1.0979730665
 N          1.7120504652        2.1212896473        0.2947999122
 S          2.2808379479        0.9206889123       -0.7668195298
 O          2.5251396549        1.5505636018       -2.0402495272
 O          1.3747916181       -0.2069798428       -0.7759212495
 C          3.8298289067        0.4634435874       -0.0121276850
 C          4.8618395834        1.3822607658       -0.0282473644
 C          6.0638537419        1.0476202534        0.5739889167
 C          6.2125544361       -0.1923055704        1.1782695586
 C          5.1675919174       -1.1034492089        1.1851709279
 C          3.9615175394       -0.7744753379        0.5857955195
 H          3.1231288899       -1.4527812233        0.5630734321
 H          5.2852399445       -2.0672909373        1.6536294001
 H          7.1496062209       -0.4511847297        1.6453940363
 H          6.8794777789        1.7524698135        0.5700003999
 H          4.7019856233        2.3292407757       -0.5159098983
 H          1.6289782509        1.6849169453        1.2067382999
 H          1.2207282791        3.9335629325       -1.5616999342
 H         -1.0162189882        4.5315068280       -2.4538499058
 H         -3.0235512026        3.3617688807       -1.6391227754
 H         -3.9667202783        1.5496679565       -0.4830839692
 C         -3.6665054084        1.7356864713        1.6188735165
 C         -2.9305163841        2.6364282552        2.5608136966
 C         -4.1680885942        3.1262924351        1.8753475254
 H         -5.0696444332        3.2530618477        2.4549781759
 H         -4.0454975943        3.8491586888        1.0826848375
 H         -2.9749767018        2.4004135103        3.6129900551
 H         -1.9812462458        3.0406855433        2.2458433017
 H         -4.2277757246        0.9249254848        2.0708947211
