  62
        -98.94471722
 C          1.5071160579        1.7719743644       -0.4760313413
 C          1.5354823138        0.5974474273       -1.2689673604
 C          2.7356034893       -0.2446149610       -1.1278554142
 C          3.7061090081        0.1152321864       -0.2709063701
 C          4.9517585993       -0.6756557903        0.0031036749
 C          4.7547001666       -1.6470365717        1.1746305145
 C          3.4960004140       -2.5084712816        1.0661530603
 H          3.4920296602       -3.1875617800        1.9221635313
 H          2.6082951557       -1.8779984215        1.1615615060
 C          3.3898067121       -3.3224545205       -0.2306610162
 H          4.3698191417       -3.4008075699       -0.7043429378
 H          3.0662079517       -4.3348905030        0.0203429594
 C          2.3762767042       -2.7686007994       -1.2337273862
 H          2.1915100848       -3.5353257108       -1.9916240324
 H          1.4314236446       -2.5800748216       -0.7172699386
 C          2.8006267041       -1.4894715618       -1.9672270976
 H          3.8013209802       -1.6200734064       -2.3856937159
 H          2.1001558210       -1.3321571722       -2.7928415793
 H          5.6326828988       -2.2932530671        1.2363714270
 H          4.6932009338       -1.0679910997        2.0991134558
 H          5.2304337230       -1.2253463833       -0.8940085832
 H          5.7523157902        0.0226968093        0.2541505478
 O          3.6436246205        1.2454577092        0.4799882287
 C          2.5445050618        2.0836851296        0.4063971215
 O          2.6101361229        3.0783171526        1.1583670843
 O          0.6270168920        0.2524498078       -2.0664712318
 C          0.3416780873        2.7483744367       -0.4580119645
 C         -0.6379138012        2.3912968882        0.6335097236
 C         -1.2669273580        3.3777026157        1.3847009856
 C         -2.1643546787        3.0339596158        2.3803308441
 C         -2.4420106262        1.7070109293        2.6532463982
 C         -1.8023268573        0.7107130444        1.9213574897
 C         -0.9204493408        1.0620167604        0.9097926731
 H         -0.4217150034        0.2857032495        0.3552732534
 N         -2.0183201858       -0.6346742242        2.2233930337
 S         -1.6700628537       -1.9185274771        1.2202096041
 O         -2.1588254566       -3.0629688256        1.9605476009
 O         -0.2702910480       -1.9335566847        0.8838034644
 C         -2.6984170207       -1.6877790504       -0.2175410685
 C         -4.0453075074       -1.9620894240       -0.0635048998
 C         -4.8973966081       -1.7865741900       -1.1398638935
 C         -4.3903656183       -1.3420294158       -2.3524256644
 C         -3.0383279416       -1.0755660098       -2.4908344927
 C         -2.1778904538       -1.2454884694       -1.4154626589
 H         -1.1254048788       -1.0272564367       -1.5113675102
 H         -2.6356778759       -0.7306987086       -3.4296100055
 H         -5.0514858572       -1.2049941304       -3.1936029409
 H         -5.9493562439       -1.9970117650       -1.0329483354
 H         -4.3935688439       -2.3256153868        0.8896145310
 H         -2.7448811945       -0.8341987862        2.8920158179
 H         -3.1306287974        1.4392809053        3.4397389320
 H         -2.6481481544        3.8078164190        2.9567376587
 H         -1.0319930852        4.4158097863        1.2012345134
 H          0.7813712579        3.7239108793       -0.1926983763
 C         -0.3312550023        2.9072529860       -1.8147782614
 C         -1.6730979079        2.3284384128       -2.1352139895
 C         -1.5191899347        3.8092742636       -1.9763308723
 H         -1.5724829453        4.4329865604       -2.8557852213
 H         -1.9319984256        4.2613594808       -1.0879744545
 H         -1.8178901522        1.9212378807       -3.1234191154
 H         -2.1862858346        1.7788365231       -1.3609296914
 H          0.3940567712        2.9135414918       -2.6216182988
