  62
        -98.94014109
 C         -2.5354243225       -1.2490556478        0.0787210882
 C         -3.4377575901       -0.6275242208        0.9829790822
 C         -4.3981710879        0.3152608764        0.4019191666
 C         -4.3988664165        0.5292793690       -0.9259129233
 C         -5.3304184911        1.4406126799       -1.6776338189
 C         -4.8913138256        2.9113223411       -1.6880940148
 C         -5.0574031362        3.6492436998       -0.3589954968
 H         -4.9223925821        4.7129354575       -0.5647823325
 H         -6.0765970151        3.5150356188        0.0045846072
 C         -4.0602940837        3.2269681254        0.7292547129
 H         -3.6465483327        4.1167616702        1.2089843694
 H         -3.2239379330        2.6936042262        0.2711183805
 C         -4.6576392070        2.3542283970        1.8332120494
 H         -5.4045237101        2.9257742503        2.3885361182
 H         -3.8566722894        2.0827833483        2.5255204995
 C         -5.3087513205        1.0586813886        1.3316091780
 H         -5.5008308984        0.4149825141        2.1933562948
 H         -6.2562976928        1.2787898053        0.8403472594
 H         -5.4924795337        3.4247725065       -2.4420595105
 H         -3.8470127192        2.9618106094       -2.0050750066
 H         -6.3346275036        1.3623728206       -1.2601037334
 H         -5.3530955965        1.0804831434       -2.7084882829
 O         -3.5328487475       -0.0982597908       -1.7631764719
 C         -2.5660880154       -0.9758494752       -1.2888363995
 O         -1.8305872042       -1.4306411545       -2.1879184442
 O         -3.4432538745       -0.8609696062        2.2201481254
 C         -1.5255568564       -2.2107038609        0.6833023457
 C         -0.2255725877       -1.4908093399        0.9413581799
 C          0.2711367434       -1.3379501809        2.2295985539
 C          1.4660095445       -0.6732004682        2.4474277898
 C          2.1846584437       -0.1482608010        1.3886431186
 C          1.6947016329       -0.2946254027        0.0966722999
 C          0.4997586559       -0.9636156813       -0.1192669913
 H          0.1208378364       -1.0840417216       -1.1241130226
 N          2.4143473260        0.2463542410       -0.9861760605
 S          4.0118765867       -0.2477631334       -1.1608143926
 O          4.3155836803       -0.0836958993       -2.5653676771
 O          4.2167603821       -1.5668193551       -0.6072706452
 C          4.9330462031        0.9550379336       -0.2249253735
 C          5.7427031110        0.5460639561        0.8165983171
 C          6.4527740286        1.5008736883        1.5279747664
 C          6.3414886371        2.8400606249        1.1866589987
 C          5.5266581703        3.2339963161        0.1355344392
 C          4.8153208538        2.2844981549       -0.5804080909
 H          4.1753377505        2.5472395843       -1.4062531650
 H          5.4431728485        4.2761982233       -0.1274955332
 H          6.8935763355        3.5814486921        1.7423745184
 H          7.0877551966        1.1965943384        2.3444179690
 H          5.7936621461       -0.5057680948        1.0486525566
 H          1.9249274871        0.1560191139       -1.8657158490
 H          3.1147065780        0.3711584544        1.5524043111
 H          1.8412988671       -0.5616628200        3.4531762826
 H         -0.2905037355       -1.7362108875        3.0618898198
 H         -1.9541373777       -2.4804782175        1.6601116045
 C         -1.3532608741       -3.4888073192       -0.1310524050
 C         -0.0105244985       -4.0773093995       -0.4453580106
 C         -0.9058286937       -4.7491290125        0.5484002581
 H         -1.3776853075       -5.6814152551        0.2771989168
 H         -0.6338419433       -4.6790230760        1.5909241234
 H          0.1223881734       -4.5331495072       -1.4153723429
 H          0.8735467695       -3.5754808514       -0.0813974885
 H         -2.1067942382       -3.5993732938       -0.9022807185
