  62
        -98.94182325
 C          0.7993043991        1.3186038997        0.6038099296
 C          1.2250925892        0.5912259898       -0.5310756204
 C          2.1917799499       -0.4949013297       -0.2826644404
 C          2.4998484003       -0.8225246293        0.9836369396
 C          3.4191575609       -1.9099489487        1.4851354397
 C          4.7320267809       -2.1340307981        0.7256675395
 C          5.3928055801       -0.8518846279        0.1987082791
 H          4.8964076298        0.0234569919        0.6214698691
 H          6.4331102902       -0.8264181172        0.5284527189
 C          5.3799036498       -0.7558162981       -1.3284749109
 H          5.6471659003       -1.7297154381       -1.7439880508
 H          6.1487761894       -0.0450986578       -1.6407923011
 C          4.0586235395       -0.2938556490       -1.9414769107
 H          4.1536521893       -0.3543376991       -3.0280895707
 H          3.8839089989        0.7564757410       -1.6929125309
 C          2.8162002800       -1.0921736396       -1.5109182704
 H          2.0638976398       -0.9973341001       -2.2979114702
 H          3.0559340206       -2.1434249594       -1.3797493702
 H          4.5647854011       -2.8181346584       -0.1045247904
 H          5.4110303013       -2.6378604676        1.4159469694
 H          2.8584818915       -2.8491141690        1.5186954499
 H          3.6402977310       -1.6385920184        2.5206432496
 O          1.9496666101       -0.1794068694        2.0560302396
 C          1.1402501495        0.9316460502        1.8975020996
 O          0.7917751394        1.4744426102        2.9668965095
 O          0.8337868189        0.8420490593       -1.6992395603
 C         -0.0601433316        2.5570389492        0.4325115695
 C         -1.3620729016        2.2155637784       -0.2486148402
 C         -1.8753828622        2.9321621380       -1.3219843702
 C         -3.0923417121        2.5809340172       -1.8795608799
 C         -3.8206198614        1.5175224269       -1.3800797296
 C         -3.3194226308        0.8003110174       -0.2989030296
 C         -2.0986608909        1.1501572181        0.2547900301
 H         -1.7203124205        0.5942650085        1.1011586702
 N         -4.0482807502       -0.2651781929        0.2493201207
 S         -3.2769825293       -1.5703227724        0.9324717208
 O         -4.2880702588       -2.6080783029        0.9452416212
 O         -2.7287680793       -1.2239973719        2.2204374507
 C         -1.9761517193       -2.0554195019       -0.1869770793
 C         -0.7862863489       -2.5102742112        0.3417222705
 C          0.1863129212       -2.9979454108       -0.5152712295
 C         -0.0393453591       -3.0079070912       -1.8820907895
 C         -1.2324120694       -2.5307486819       -2.3999429594
 C         -2.2161187795       -2.0594234123       -1.5465383993
 H         -3.1579513098       -1.6988769028       -1.9262667892
 H         -1.4011990296       -2.5287823322       -3.4646294893
 H          0.7200021510       -3.3889107909       -2.5461814396
 H          1.1143907314       -3.3687708502       -0.1120914296
 H         -0.6433958688       -2.4690439109        1.4108636105
 H         -4.8818079701       -0.5300692935       -0.2539636791
 H         -4.7712849113        1.2462101063       -1.8127800994
 H         -3.4780755325        3.1427404568       -2.7164247400
 H         -1.3228757027        3.7649252282       -1.7239597405
 H         -0.2979997916        2.9017305993        1.4502165195
 C          0.7315786776        3.6371251595       -0.2765927608
 C          0.4352914669        5.0830826494       -0.0195034510
 C          1.6918993873        4.4683766802        0.5176732489
 H          2.6348004271        4.7407971606        0.0675745286
 H          1.7558899476        4.2731969304        1.5787432389
 H          0.5188568664        5.7815774693       -0.8383241112
 H         -0.3533271231        5.3147520191        0.6804253691
 H          1.0330131476        3.3440368695       -1.2756640108
