  62
        -98.94440336
 C         -2.6379895337       -1.3127367309        0.1148530611
 C         -2.5881721641       -0.2937401261       -0.8669901264
 C         -3.6339594408        0.7364983929       -0.7743111441
 C         -4.5603089503        0.6554940051        0.1977667702
 C         -5.6486413143        1.6611086256        0.4347319668
 C         -5.1976447693        2.7451796905        1.4234673077
 C         -3.8366222815        3.3571943337        1.0911774705
 H         -3.6369956738        4.1308471049        1.8357621595
 H         -3.0620142055        2.5950648946        1.2064234485
 C         -3.7401029145        3.9656368195       -0.3148399459
 H         -4.7403880625        4.1409179441       -0.7126551877
 H         -3.2443399182        4.9360046375       -0.2429733035
 C         -2.9373573306        3.1308116622       -1.3147303319
 H         -2.7480007234        3.7478631748       -2.1974948510
 H         -1.9651450558        2.8747159378       -0.8838161958
 C         -3.6093128232        1.8383842879       -1.7958777478
 H         -4.6181011191        2.0588024939       -2.1510516183
 H         -3.0244192689        1.4548455569       -2.6371740074
 H         -5.9555734877        3.5302469590        1.4442963281
 H         -5.1386792005        2.3021811138        2.4201936812
 H         -5.9304663927        2.1139766821       -0.5137341565
 H         -6.5129049894        1.1401929974        0.8500748433
 O         -4.5808772259       -0.3425835967        1.1170302718
 C         -3.6164060596       -1.3347479422        1.1118767225
 O         -3.7376969231       -2.1725881835        2.0274605973
 O         -1.7268119640       -0.2404347344       -1.7848476000
 C         -1.5987841710       -2.4229164423        0.1535239867
 C         -0.2687882573       -1.8078276555        0.5144939635
 C         -0.0046373707       -1.5047754791        1.8477385847
 C          1.1762298262       -0.8849027178        2.2092562653
 C          2.1146828797       -0.5447329717        1.2495746642
 C          1.8513425737       -0.8244567886       -0.0838462089
 C          0.6731367381       -1.4678798531       -0.4426263376
 H          0.4772802070       -1.6691689764       -1.4836084020
 N          2.7909339308       -0.4780602107       -1.0682681011
 S          3.5246417547        1.0282292173       -0.9955182378
 O          2.6818490924        2.0121675391       -0.3563819270
 O          3.9332678251        1.3143368674       -2.3536149073
 C          4.9792874906        0.7330382702       -0.0095497530
 C          5.2635025093        1.5540936256        1.0638906580
 C          6.4076922518        1.3128604519        1.8086901634
 C          7.2438235410        0.2609357233        1.4678327020
 C          6.9459140336       -0.5529369939        0.3849507032
 C          5.8045461889       -0.3163091317       -0.3641375995
 H          5.5390626421       -0.9237894572       -1.2130463896
 H          7.5983785462       -1.3702273372        0.1230802734
 H          8.1326692766        0.0742842254        2.0495779003
 H          6.6406924060        1.9450242173        2.6504793840
 H          4.5810894873        2.3564858595        1.2958554286
 H          2.4830997446       -0.6826101174       -2.0082008611
 H          3.0321423259       -0.0499098835        1.5232803759
 H          1.3692702029       -0.6606043893        3.2474214475
 H         -0.7471074138       -1.7518828454        2.5943078071
 H         -1.8999046770       -3.0866101573        0.9748391051
 C         -1.5812267262       -3.2206281446       -1.1334755704
 C         -0.8953927139       -4.5525096200       -1.1611155851
 C         -2.3906895537       -4.4777090231       -1.2234880927
 H         -2.8815217212       -4.7075563443       -2.1573703641
 H         -2.9557590270       -4.7708683033       -0.3507057242
 H         -0.3577164099       -4.8382957786       -2.0522425434
 H         -0.4433728751       -4.8976503881       -0.2436785457
 H         -1.5309662692       -2.6035293399       -2.0219162442
