  62
        -98.93352534
 C          2.4109868796        1.0191620495        0.2388444809
 C          2.7492107194       -0.2693951905        0.7204182509
 C          3.8415920494       -0.9805959806        0.0353398910
 C          4.4550990995       -0.3902937506       -1.0072938090
 C          5.5614020995       -0.8729578107       -1.9223345590
 C          6.3720729094       -2.1191670608       -1.5774855590
 C          7.2918112993       -1.9668451509       -0.3661172489
 H          7.7314879492       -2.9417855110       -0.1449787889
 H          8.1054426994       -1.2875330110       -0.6324966189
 C          6.6328235693       -1.4202628509        0.8977396011
 H          7.4030504193       -1.3433660910        1.6699627711
 H          6.2621727894       -0.4103628609        0.7111215111
 C          5.4950834192       -2.2690088208        1.4613430910
 H          5.8436583191       -3.2907894408        1.6242251210
 H          5.2214791092       -1.8504387608        2.4337405210
 C          4.2187947493       -2.3183964307        0.6041887209
 H          4.3015631392       -3.0617596307       -0.1853230791
 H          3.3888779492       -2.6205192106        1.2500474609
 H          5.7129397893       -2.9733791507       -1.4533479190
 H          7.0028878794       -2.3303729708       -2.4452269289
 H          5.0888303895       -1.0262644407       -2.8987893890
 H          6.2423608996       -0.0240967808       -2.0412010989
 O          4.0814567196        0.8442267494       -1.4500746390
 C          3.0601722997        1.5776686695       -0.8611916490
 O          2.8566717498        2.6754597995       -1.4087517390
 O          2.1566265994       -0.8077781805        1.6956059109
 C          1.2855327796        1.7403117896        0.9596158409
 C         -0.0319505504        1.3746826597        0.3252916709
 C         -0.2698606803        1.6079667798       -1.0263773791
 C         -1.4744983303        1.2407623099       -1.5967755692
 C         -2.4584286704        0.6261880899       -0.8405909093
 C         -2.2204766505        0.3643707599        0.5012722007
 C         -1.0152194105        0.7495392498        1.0764266608
 H         -0.8287003006        0.5341266197        2.1199020108
 N         -3.2080663006       -0.2660718400        1.2742641307
 S         -4.0017138807       -1.6060169100        0.6464302106
 O         -4.4536584108       -2.3472224300        1.8034824406
 O         -3.1752891407       -2.3226359000       -0.2965525694
 C         -5.4164136406       -0.9081184998       -0.1808299794
 C         -5.6589880205       -1.2124789598       -1.5058975194
 C         -6.7714440505       -0.6656174496       -2.1266948495
 C         -7.6177269704        0.1704004904       -1.4147453195
 C         -7.3618991605        0.4637556803       -0.0834563195
 C         -6.2522946105       -0.0804067798        0.5430905006
 H         -6.0211842706        0.1193237902        1.5760015406
 H         -8.0228515204        1.1138070604        0.4668658105
 H         -8.4821458704        0.5951676305       -1.9001906095
 H         -6.9721758005       -0.8935310196       -3.1612451595
 H         -4.9712418406       -1.8640675598       -2.0215339994
 H         -2.9339733606       -0.4287080901        2.2325715307
 H         -3.3947516504        0.3320097800       -1.2855578893
 H         -1.6500014403        1.4324709899       -2.6445919592
 H          0.5029639897        2.0731948497       -1.6201024491
 H          1.2898857195        1.3137923895        1.9754355109
 C          1.5075297197        3.2396381595        1.0967964910
 C          0.6313938498        4.2748875996        0.4637364610
 C          0.5711989998        4.0517377596        1.9428810510
 H          0.9834841498        4.8006140596        2.6018973510
 H         -0.3005820103        3.5487840497        2.3343839209
 H          1.1089590899        5.1675582396        0.0897546910
 H         -0.2037860302        3.9461356197       -0.1337232291
 H          2.5614793597        3.4873469795        1.1667011410
