  62
        -98.94477379
 C         -1.1586745630       -1.7767506235       -0.6757682687
 C         -1.2098105454       -0.4530961118       -1.1816734031
 C         -2.5019673870        0.2393426623       -1.0324187226
 C         -3.5379185335       -0.3963291496       -0.4589133084
 C         -4.9014652991        0.1925677350       -0.2403921118
 C         -5.0215370488        0.8458146428        1.1422964146
 C         -3.8799527895        1.8075047706        1.4721013124
 H         -4.0966293671        2.2493764472        2.4475126868
 H         -2.9485423698        1.2453144379        1.5791009011
 C         -3.6715234696        2.9242431984        0.4402131618
 H         -3.5213617105        3.8658108226        0.9729948118
 H         -4.5655555700        3.0369555193       -0.1749295967
 C         -2.4495577652        2.7229483190       -0.4583641169
 H         -1.5888299438        2.4753220477        0.1692690080
 H         -2.2379361040        3.6722509998       -0.9598294598
 C         -2.5878594273        1.6489336820       -1.5461406959
 H         -3.5170234811        1.8038052628       -2.0995321210
 H         -1.7496127498        1.7640644405       -2.2397815400
 H         -5.9728733878        1.3794342442        1.1900221122
 H         -5.0348848672        0.0581191075        1.8991662370
 H         -5.1013655869        0.9266675284       -1.0185848089
 H         -5.6354068494       -0.6119912129       -0.3156032805
 O         -3.4515565315       -1.6654425232        0.0166935572
 C         -2.2629800834       -2.3706503828       -0.0599572511
 O         -2.3185428275       -3.5160016231        0.4342961364
 O         -0.2503216525        0.1304414524       -1.7458246918
 C          0.0913630721       -2.6430293264       -0.7291879535
 C          0.9568081192       -2.3760570012        0.4746159824
 C          1.3804851342       -3.4062049739        1.3054936493
 C          2.1490754199       -3.1321184975        2.4235933648
 C          2.5079645933       -1.8324310436        2.7322399503
 C          2.0935695882       -0.7952125841        1.9024490789
 C          1.3289660268       -1.0743450175        0.7801637592
 H          0.9967141396       -0.2681434737        0.1480476655
 N          2.4758851550        0.5251964078        2.1574804896
 S          1.6633473390        1.8285523128        1.5029751301
 O          2.1920173724        2.9655943466        2.2311699014
 O          0.2298692065        1.6643440745        1.5786287004
 C          2.2299831012        1.9179915600       -0.1820555397
 C          1.4385688428        2.5595940397       -1.1116529876
 C          1.8875006814        2.6639796218       -2.4178658847
 C          3.1155497371        2.1292134268       -2.7703503282
 C          3.9035534239        1.4951735685       -1.8226523847
 C          3.4614967510        1.3898531158       -0.5141051276
 H          4.0491768926        0.8964330498        0.2424836253
 H          4.8579110467        1.0766189940       -2.0997708779
 H          3.4589613674        2.2045784360       -3.7902650352
 H          1.2716580394        3.1537662785       -3.1550254825
 H          0.4823054788        2.9503211021       -0.8052067115
 H          2.8957601030        0.7132109964        3.0542942319
 H          3.1001701069       -1.6181653934        3.6086279152
 H          2.4668404030       -3.9387832588        3.0667142179
 H          1.0863267385       -4.4212853276        1.0822559050
 H         -0.2739991316       -3.6795742208       -0.6513104467
 C          0.8429060476       -2.5277692624       -2.0486531742
 C          2.1686393420       -1.8508431935       -2.2003899649
 C          2.0817652784       -3.3438344336       -2.2748851630
 H          2.2161337100       -3.8277377288       -3.2303487546
 H          2.4612430243       -3.9075310095       -1.4357335521
 H          2.3378527058       -1.2890470391       -3.1059772761
 H          2.6207858095       -1.4061795900       -1.3283310056
 H          0.1613621385       -2.4364304083       -2.8883205965
