  62
        -98.93145742
 C         -1.4766948010       -1.6485366460        0.4760276669
 C         -1.6428429988       -0.2944088574        0.8589376628
 C         -2.8436528712        0.4020356719        0.3641973254
 C         -3.6888553792       -0.2591427075       -0.4465125629
 C         -4.9828237627        0.2165955790       -1.0581520117
 C         -4.9995991627        1.6393769167       -1.6376312965
 C         -5.8197140495        2.6279389466       -0.8061455661
 H         -6.1477135504        3.4419998551       -1.4565313387
 H         -6.7164095259        2.1188352866       -0.4464955366
 C         -5.0846218080        3.2522348748        0.3787593224
 H         -4.3409585880        3.9612533631        0.0086556071
 H         -5.8158706386        3.8215899936        0.9574290079
 C         -4.3867805686        2.2594824701        1.3105158773
 H         -4.2611439863        2.7431688089        2.2814945581
 H         -5.0143739932        1.3834548627        1.4713612123
 C         -2.9975635067        1.8280085413        0.8162042253
 H         -2.2664489403        1.9393317791        1.6226155116
 H         -2.6692910938        2.4908571741        0.0112823498
 H         -3.9807846781        2.0017964122       -1.7634888880
 H         -5.4473229745        1.5862178962       -2.6315116879
 H         -5.7741820012        0.1122238439       -0.3111784817
 H         -5.2046735980       -0.5064965848       -1.8464988616
 O         -3.4709141333       -1.5515844267       -0.8185623769
 C         -2.3695207948       -2.2794920959       -0.3889339748
 O         -2.3252620828       -3.4353584900       -0.8466346213
 O         -0.8210637642        0.3050519632        1.6025991728
 C         -0.2374961531       -2.3450392490        1.0105983679
 C          0.9218557170       -2.0163120497        0.1066794430
 C          0.8715049449       -2.3030914901       -1.2543491471
 C          1.9187664988       -1.9476217250       -2.0847090063
 C          3.0266518282       -1.2868308540       -1.5807800109
 C          3.0756508924       -0.9784761218       -0.2281851889
 C          2.0315308954       -1.3533847729        0.6077778259
 H          2.0696156314       -1.1002273088        1.6584192123
 N          4.1863381642       -0.2730781319        0.2825260862
 S          4.4110506024        1.2854919177       -0.2936969582
 O          4.6797063582        1.2247368041       -1.7074412173
 O          5.4502952020        1.8539404952        0.5334252975
 C          2.8644055072        2.1211920211        0.0052814465
 C          2.7257745527        2.8754357711        1.1530547400
 C          1.5090564378        3.4843902263        1.4116225532
 C          0.4536835565        3.3193973102        0.5287906465
 C          0.6063275682        2.5510696126       -0.6140185761
 C          1.8222300012        1.9445499422       -0.8827531306
 H          1.9760209769        1.3446425705       -1.7652702332
 H         -0.2190378320        2.4129553385       -1.2946684395
 H         -0.4948082679        3.7888729306        0.7355572003
 H          1.3837202231        4.0792178907        2.3021589829
 H          3.5729940695        2.9792801211        1.8121790748
 H          4.2085016965       -0.2509510745        1.2930118774
 H          3.8387388654       -0.9809588738       -2.2201217807
 H          1.8709746122       -2.1817789646       -3.1377146495
 H         -0.0020853376       -2.7996384983       -1.6510793993
 H         -0.0416031294       -1.8631748408        1.9817016463
 C         -0.4188935746       -3.8317172386        1.2715527085
 C          0.3001822261       -4.9043278050        0.5150651828
 C          0.6845824496       -4.6058675711        1.9310790722
 H          0.4318971791       -5.3181682578        2.7017132311
 H          1.6206465473       -4.0921036732        2.0931858149
 H         -0.2434300907       -5.8120519130        0.3019584379
 H          0.9828811587       -4.6143400620       -0.2678579295
 H         -1.4301111122       -4.0682242998        1.5845545540
