  62
        -98.93876376
 C         -1.8570968953       -0.7180954626        0.8656506711
 C         -2.1703195180        0.6657349881        0.8292452716
 C         -3.5874358301        1.0145854672        0.6722618087
 C         -4.4980196757        0.0280638407        0.5883780817
 C         -5.9690392091        0.2333649907        0.3731550125
 C         -6.3169834315        0.2304649738       -1.1220074187
 C         -5.4239150291        1.1400694417       -1.9659040396
 H         -4.4041928469        0.7479870952       -1.9559632616
 H         -5.7806579342        1.0802374593       -2.9964703505
 C         -5.4060712755        2.6074267498       -1.5152076405
 H         -6.2662244645        2.8089153041       -0.8756854548
 H         -5.5010475671        3.2453697079       -2.3964535948
 C         -4.1266226741        3.0331771272       -0.7926234774
 H         -3.2564175879        2.7479783374       -1.3892271133
 H         -4.1273278766        4.1236609619       -0.7147751808
 C         -3.9431651379        2.4738046711        0.6237311627
 H         -3.1022261043        3.0014437041        1.0829780336
 H         -4.8387731988        2.6715836302        1.2163154808
 H         -7.3592690434        0.5346211792       -1.2345016370
 H         -6.2184402026       -0.7904553822       -1.4982178942
 H         -6.5056128419       -0.5805641630        0.8636429067
 H         -6.2684031802        1.1771218634        0.8249841553
 O         -4.1671265527       -1.2852296543        0.6437753404
 C         -2.8440452136       -1.7001895410        0.7673366149
 O         -2.7124040404       -2.9368715286        0.7774293350
 H          1.9774734062       -0.0666804690        0.2480283487
 C          1.5339096529       -0.6758474995       -0.5238794233
 C          0.2923794038       -1.2554239717       -0.3089993084
 C         -0.2791874075       -2.0111380423       -1.3272784944
 C          0.3877315036       -2.1845070862       -2.5266318074
 C          1.6408014328       -1.6312727632       -2.7245179186
 C          2.2204298025       -0.8740584994       -1.7136060092
 N          3.4853919352       -0.2952437207       -1.8769551912
 S          4.5490754117       -0.2469540287       -0.5833269868
 O          5.8569024141       -0.1441120690       -1.1935314614
 O          4.3455554638       -1.3640873567        0.3080038101
 C          4.1707781759        1.2850930247        0.2388072845
 C          3.8876253422        1.2886171994        1.5900344541
 C          3.6040819587        2.4941091431        2.2123319763
 C          3.6107655881        3.6685500231        1.4761380873
 C          3.9014023563        3.6485162484        0.1202875446
 C          4.1855967038        2.4467587007       -0.5074322004
 H          4.4185199097        2.3911300126       -1.5576715081
 H          3.9043138645        4.5647806095       -0.4478656240
 H          3.3860919974        4.6045145148        1.9628086216
 H          3.3754475561        2.5109189286        3.2659554051
 H          3.8865973206        0.3516576775        2.1253095303
 H          3.9500016725       -0.5187675642       -2.7447391015
 H          2.1661991179       -1.7830962623       -3.6552011841
 H         -0.0665181713       -2.7713140826       -3.3110078182
 H         -1.2431544852       -2.4696906689       -1.1652881858
 C         -0.3893027893       -1.0686051024        1.0220899865
 H          0.0594277443       -0.1782368916        1.4918201347
 C         -0.1394220066       -2.2407840286        1.9610136583
 C          0.2703087500       -3.6024914204        1.4969859638
 C          1.2571560934       -2.7305318760        2.2107261282
 H          1.5376768272       -2.9897817512        3.2207872207
 H          2.0612343502       -2.3032212209        1.6280567595
 H         -0.1476639786       -4.4538432547        2.0121192830
 H          0.4030971202       -3.7618720152        0.4385424896
 H         -0.8015655973       -2.2112737028        2.8210809824
 O         -1.2977508000        1.5696071631        0.9325310652
