  62
        -98.93242280
 C         -2.7822227972       -0.3556614823        0.5873512841
 C         -2.3203214875        0.1446702132       -0.6548776264
 C         -2.2700497281        1.6135752773       -0.7918243536
 C         -2.7028362043        2.3809214258        0.2244501240
 C         -2.6712559481        3.8818611015        0.2863376527
 C         -1.2749129894        4.4176901702        0.6751470288
 C         -0.0973495490        3.5403399639        0.2449450095
 H          0.7920867241        3.8865350264        0.7784154752
 H         -0.2760853407        2.5113371641        0.5652956016
 C          0.2278534315        3.5502407109       -1.2504239964
 H          0.9180702176        2.7244903220       -1.4439284112
 H          0.7406011905        4.4853163112       -1.4915388287
 C         -0.9657739912        3.4245733950       -2.1940229712
 H         -0.5814813880        3.4877871825       -3.2166346486
 H         -1.6340972536        4.2716272784       -2.0571946793
 C         -1.7311253140        2.1033459935       -2.1112018685
 H         -2.5706579173        2.1438054251       -2.8168662129
 H         -1.0746672998        1.2991500394       -2.4626342387
 H         -1.2389125546        4.4935358991        1.7638522085
 H         -1.1508745042        5.4197478762        0.2633335043
 H         -3.3902067085        4.1895906169        1.0479188895
 H         -3.0012941578        4.2832720213       -0.6683464196
 O         -3.1704546563        1.8595548948        1.3916860535
 C         -3.1823767489        0.4952465963        1.6188843750
 O         -3.5590407826        0.1676729101        2.7623207628
 O         -1.9484595103       -0.5892544604       -1.6074827622
 C         -2.7557770859       -1.8421735109        0.9044256351
 C         -1.4433817827       -2.4232018060        0.4333319934
 C         -1.3319878333       -3.5573552708       -0.3587972643
 C         -0.0896107292       -3.9969428925       -0.7845458608
 C          1.0637292756       -3.3171341854       -0.4398368341
 C          0.9625471181       -2.1833047651        0.3549994052
 C         -0.2778140623       -1.7610958619        0.8011417564
 H         -0.3502539465       -0.8709394707        1.4169768564
 N          2.1358483122       -1.4598047344        0.6911435123
 S          2.7919820828       -0.5869770741       -0.6060205457
 O          1.9672292485        0.5614659171       -0.9104502019
 O          3.0502445735       -1.5006049164       -1.6885037188
 C          4.3319532644       -0.0490667469        0.1131754112
 C          5.3440275040       -0.9767053474        0.2669089593
 C          6.5345933262       -0.5775020833        0.8524094676
 C          6.6919469549        0.7352111558        1.2723910600
 C          5.6671022047        1.6548539614        1.1106509978
 C          4.4729066422        1.2609323768        0.5271156918
 H          3.6506698686        1.9423736205        0.3756896960
 H          5.7921409103        2.6752069077        1.4357528914
 H          7.6197947742        1.0442380547        1.7272738239
 H          7.3346833846       -1.2888249614        0.9790735785
 H          5.1788499089       -1.9825851811       -0.0813213183
 H          1.9417709595       -0.7878500194        1.4243388393
 H          2.0305647341       -3.6289464532       -0.7985965712
 H         -0.0213995670       -4.8757423336       -1.4079731749
 H         -2.2193887539       -4.0828363664       -0.6714440776
 H         -2.7717098031       -1.8959046328        2.0063722942
 C         -3.9728094835       -2.6144776108        0.4179180991
 C         -5.2775174455       -1.9221835887        0.1624507106
 C         -4.4903649845       -2.4826580073       -0.9817770138
 H         -4.8653557431       -3.3672898291       -1.4755706961
 H         -3.9743265686       -1.8003327809       -1.6384208924
 H         -6.1875974082       -2.4224603457        0.4578588643
 H         -5.3092926884       -0.8493534003        0.2870335816
 H         -4.0371920920       -3.5985509415        0.8717859074
