  62
        -98.93632315
 C         -1.7672965748       -1.2386983632        0.3400126326
 C         -2.4764630398       -0.6128865552       -0.7102933469
 C         -3.6552679018        0.1886152598       -0.3239356586
 C         -3.9843886959        0.2845567779        0.9766615338
 C         -5.1297257363        1.0338806691        1.6095599099
 C         -6.4974579355        0.9093562836        0.9207192072
 C         -6.9508990019        2.1979644755        0.2325763145
 H         -8.0402013575        2.1869881810        0.1527444820
 H         -6.6797825218        3.0446958116        0.8667448720
 C         -6.3875953110        2.4173546067       -1.1705213247
 H         -6.6686360636        3.4251039592       -1.4855025510
 H         -6.8602000947        1.7174823459       -1.8630709030
 C         -4.8698882280        2.2698955685       -1.2980314412
 H         -4.3680200568        2.7256659600       -0.4450750828
 H         -4.5541854556        2.8243407828       -2.1845062744
 C         -4.4044907010        0.8159459138       -1.4676184869
 H         -5.2570105953        0.1794237484       -1.7221091960
 H         -3.7156550093        0.7484642249       -2.3157079290
 H         -7.2340434693        0.6598218243        1.6861475316
 H         -6.4804866703        0.0855746299        0.2088944625
 H         -4.8514278233        2.0875032958        1.6931003144
 H         -5.1914642791        0.6475025554        2.6295473306
 O         -3.2464644781       -0.3089647409        1.9595231552
 C         -2.1285141070       -1.0707142802        1.6750212192
 O         -1.5468676516       -1.5310739905        2.6792099073
 O         -2.1451494973       -0.7130343192       -1.9202354073
 C         -0.5495808270       -2.0931072929        0.0356730390
 C          0.5121036925       -1.2543267794       -0.6342690221
 C          1.1669293771       -1.6277003653       -1.7997371204
 C          2.1282916968       -0.8022517899       -2.3588316996
 C          2.4657453487        0.3995397782       -1.7656239750
 C          1.8318306675        0.7719231638       -0.5861311832
 C          0.8695284572       -0.0551531295       -0.0287902747
 H          0.3736479130        0.2376788990        0.8889629300
 N          2.1850909645        1.9797233340        0.0392299270
 S          3.8139959481        2.3405680858        0.1735308460
 O          3.9223140617        3.1733168053        1.3510932998
 O          4.2826482452        2.9295409060       -1.0561826106
 C          4.6239832894        0.7723754322        0.4365555414
 C          5.5684666206        0.3246286925       -0.4643931699
 C          6.1622297918       -0.9098870495       -0.2552512479
 C          5.7994476745       -1.6731119368        0.8433455875
 C          4.8512243235       -1.2078147904        1.7418359140
 C          4.2563515582        0.0266563982        1.5391265627
 H          3.5186914916        0.4166458102        2.2225618992
 H          4.5692781367       -1.8020195673        2.5963627589
 H          6.2576767392       -2.6363119673        1.0029300260
 H          6.9015767988       -1.2731627169       -0.9505854078
 H          5.8177511235        0.9489578078       -1.3068428131
 H          1.6966081145        2.1525344098        0.9051078088
 H          3.1991719961        1.0603298104       -2.1984194435
 H          2.6194885747       -1.0985028412       -3.2728796026
 H          0.9175183731       -2.5596779913       -2.2788079916
 H         -0.1578318355       -2.4159228869        1.0114070320
 C         -0.9502199372       -3.3188981418       -0.7574657106
 C         -0.1443220207       -4.5778339077       -0.6545230413
 C         -1.5020489465       -4.5036450133       -0.0250334184
 H         -2.3130058621       -5.0563418903       -0.4751201060
 H         -1.5669378677       -4.4353232412        1.0514352755
 H         -0.0238803026       -5.1871583444       -1.5373753526
 H          0.7161412085       -4.5684430875       -0.0029696705
 H         -1.3969359901       -3.0696397334       -1.7127828125
