  62
        -98.93715624
 C         -2.6486752536       -0.7682908987        0.0591898322
 C         -3.1258907365        0.2081249100        0.9617027278
 C         -3.3130320750        1.5658878076        0.4214598423
 C         -3.0115598904        1.8013092735       -0.8676274538
 C         -3.0517546044        3.1201104074       -1.5885858073
 C         -1.6726236468        3.8012324628       -1.5451376297
 C         -1.4253833168        4.6786781766       -0.3186080669
 H         -2.0397851151        5.5787377541       -0.3903375477
 H         -0.3784232683        4.9888423052       -0.3517783828
 C         -1.6948947434        4.0069825391        1.0303205760
 H         -1.1477669737        4.5619839719        1.7949900006
 H         -1.2904298239        2.9926378415        1.0180705007
 C         -3.1841277068        3.9786210572        1.4058780079
 H         -3.7294103507        4.6489596043        0.7419601026
 H         -3.3083885344        4.3736093620        2.4161798772
 C         -3.8400860056        2.5896082856        1.3901557961
 H         -4.9157711874        2.7053893153        1.2220378142
 H         -3.7256606673        2.1225533863        2.3734575725
 H         -1.5611956558        4.4246931868       -2.4347332360
 H         -0.9062811355        3.0218684161       -1.5975723587
 H         -3.8216971920        3.7642826004       -1.1742560194
 H         -3.2975580134        2.8990472220       -2.6292267925
 O         -2.5544912721        0.8296153622       -1.7055400856
 C         -2.3476370658       -0.4673059718       -1.2692986049
 O         -1.9087714166       -1.2418120673       -2.1406061221
 O         -3.3670669944       -0.0387642270        2.1754533966
 C         -2.3766816582       -2.1746918438        0.5631764103
 C         -0.9145547872       -2.4936970774        0.3659268128
 C         -0.4483911444       -3.6777118867       -0.1890526079
 C          0.9074782507       -3.8716900323       -0.3944424039
 C          1.8252262918       -2.8957723214       -0.0526986919
 C          1.3703020113       -1.7160134622        0.5186006786
 C          0.0159376327       -1.5300890666        0.7351683182
 H         -0.3312946963       -0.6009904660        1.1732821346
 N          2.3012115654       -0.7004080727        0.8504296187
 S          2.8965898605        0.1811125542       -0.4686416278
 O          2.2254611421        1.4649785254       -0.5064959361
 O          2.8304617076       -0.6273148656       -1.6585996938
 C          4.5972292988        0.4128564212        0.0110929239
 C          5.4884962242       -0.6172534575       -0.2171082467
 C          6.8044518901       -0.4685694500        0.1898606423
 C          7.2044614334        0.7016906688        0.8178376514
 C          6.2984556178        1.7274819020        1.0392584533
 C          4.9802070572        1.5834932634        0.6352801837
 H          4.2441675762        2.3576771219        0.7799673138
 H          6.6125909199        2.6372683018        1.5251078512
 H          8.2291675926        0.8156294829        1.1344560396
 H          7.5118460229       -1.2635802913        0.0169348103
 H          5.1348753912       -1.5033387569       -0.7180511448
 H          1.9022872170       -0.0318943099        1.4970117751
 H          2.8789719190       -3.0262603155       -0.2351442779
 H          1.2513601548       -4.7934568174       -0.8385383861
 H         -1.1489249635       -4.4437575010       -0.4788839997
 H         -2.5854094262       -2.1471117190        1.6431413992
 C         -3.3102179651       -3.1706233317       -0.0904172910
 C         -3.7025052745       -4.4245786014        0.6309027907
 C         -4.6997520366       -3.3212295419        0.4497531366
 H         -5.5106528832       -3.4646032831       -0.2483515707
 H         -4.9641573885       -2.7215284187        1.3084515244
 H         -3.8323763610       -5.3296486244        0.0570783289
 H         -3.2950998240       -4.5812246693        1.6181277183
 H         -3.1829494910       -3.2126537384       -1.1664533736
