  62
        -98.94415774
 C         -2.2571999841       -0.8921854514        0.3886862204
 C         -2.4269046776        0.0073789513       -0.6919022399
 C         -3.2552471198        1.1871550479       -0.4110131518
 C         -3.7591732080        1.3743572449        0.8222880600
 C         -4.6007235401        2.5395364946        1.2678704367
 C         -6.0939638198        2.3905878929        0.9454418524
 C         -6.4598515600        2.5469364420       -0.5310929559
 H         -7.5466211762        2.6378789515       -0.5831565095
 H         -6.0368986694        3.4768885133       -0.9123224488
 C         -6.0194121098        1.3756619103       -1.4202954505
 H         -5.7912332643        0.5092954941       -0.7951128339
 H         -6.8432655079        1.0876952225       -2.0771123772
 C         -4.8132131920        1.6743166102       -2.3107244595
 H         -5.0736100773        2.4522338913       -3.0317703224
 H         -4.5657036455        0.7673655598       -2.8679509291
 C         -3.5586834704        2.1172851323       -1.5465310396
 H         -2.7093719356        2.0878849309       -2.2334882153
 H         -3.6802216184        3.1372509560       -1.1824338825
 H         -6.4330638807        1.4159650652        1.3040623216
 H         -6.6268956726        3.1569591582        1.5129831962
 H         -4.4878888673        2.6078504002        2.3521540971
 H         -4.2206966350        3.4585438757        0.8206307557
 O         -3.5330643386        0.5073090355        1.8465085508
 C         -2.7935628665       -0.6490091810        1.6519235946
 O         -2.6751966089       -1.3611236657        2.6713332402
 H          0.1037989861       -0.2610082363        1.2450251067
 C          0.6256783076       -0.7876491355        0.4542288076
 C         -0.0294327123       -1.8104099328       -0.2206815059
 C          0.6587749619       -2.4897483394       -1.2171850250
 C          1.9570445916       -2.1335035140       -1.5397650214
 C          2.5961051281       -1.0999232872       -0.8806922064
 C          1.9230764829       -0.4235922146        0.1286362478
 N          2.5571857588        0.6369861941        0.7990362994
 S          4.1018556180        0.3879837733        1.4078736683
 O          4.3192859074       -0.9986975307        1.7496641085
 O          4.2420170148        1.3447667418        2.4840890678
 C          5.1712572278        0.8642443484        0.0665976272
 C          5.0111211143        2.1247806332       -0.4746418258
 C          5.8399136751        2.5167745556       -1.5135761230
 C          6.8112530746        1.6479622865       -1.9886200268
 C          6.9615781795        0.3871142023       -1.4320480476
 C          6.1349563472       -0.0117812365       -0.3930241962
 H          6.2111178873       -0.9842647961        0.0667059336
 H          7.7174088455       -0.2864116807       -1.8027311036
 H          7.4547647647        1.9559742693       -2.7975049069
 H          5.7254048962        3.4963617342       -1.9490782777
 H          4.2461418383        2.7696298058       -0.0750663230
 H          1.9721376222        1.0890378312        1.4865981259
 H          3.6037670082       -0.8149347853       -1.1350707315
 H          2.4772270375       -2.6661330464       -2.3211308748
 H          0.1773885742       -3.2963495116       -1.7451054296
 C         -1.4397958338       -2.1557652389        0.1950483149
 H         -1.3904484656       -2.6416472707        1.1813078152
 C         -2.1439343140       -3.0856320564       -0.7717511102
 C         -1.9962747977       -4.5706993358       -0.6394790159
 C         -3.2901976167       -3.9105495153       -0.2716653436
 H         -4.1452663697       -4.0514351327       -0.9156456399
 H         -3.5427480571       -3.8232022124        0.7755396265
 H         -1.9662595464       -5.1685472522       -1.5378980394
 H         -1.3734129398       -4.9426946111        0.1601042721
 H         -2.2276620867       -2.6633135175       -1.7664322494
 O         -1.9128866274       -0.1605985215       -1.8271101892
