  62
        -98.93738360
 C         -1.6346919968       -1.7332507108        0.1906575255
 C         -1.9077960009       -0.7595986371        1.1837093780
 C         -2.8109868787        0.3329816506        0.7995854325
 C         -3.3170350175        0.3535386339       -0.4468856933
 C         -4.2015504738        1.4285222587       -1.0114259574
 C         -3.3506681312        2.6542643801       -1.3992979153
 C         -3.6404479627        3.9079387366       -0.5740940968
 H         -2.8545470430        4.6346198272       -0.7900888882
 H         -4.5858841605        4.3409265260       -0.9075807985
 C         -3.7285645442        3.7064407795        0.9420949929
 H         -4.7140900822        3.3177345035        1.2029349241
 H         -3.6553855995        4.6956811985        1.3987214464
 C         -2.6624406794        2.7964171306        1.5664269931
 H         -1.7675050322        2.7633355231        0.9444807914
 H         -2.3685645435        3.2280843144        2.5252690188
 C         -3.1370249185        1.3583656423        1.8496967443
 H         -2.6431299425        0.9985336090        2.7570030386
 H         -4.2136517850        1.3575338357        2.0412015846
 H         -2.2993240971        2.3799973394       -1.2952325020
 H         -3.5143353837        2.8921436104       -2.4514417954
 H         -4.9600214997        1.7018172256       -0.2812858033
 H         -4.6958799444        1.0145435290       -1.8904569200
 O         -3.0069889999       -0.5792157714       -1.3819969218
 C         -2.1428234274       -1.6291445042       -1.1045707862
 O         -1.9283901669       -2.3736590478       -2.0786227691
 O         -1.4171280500       -0.8060453445        2.3450856850
 C         -0.6906032179       -2.8675338760        0.5602401297
 C          0.6713174707       -2.5222779708        0.0101065430
 C          1.1460186772       -2.9964687960       -1.2058913720
 C          2.3794260725       -2.5833979123       -1.6808254545
 C          3.1640515889       -1.7026754223       -0.9574737028
 C          2.6940448035       -1.2181304585        0.2575849882
 C          1.4566442454       -1.6293166177        0.7299286354
 H          1.0822585317       -1.2442509945        1.6694693216
 N          3.4848714345       -0.3383188202        1.0230920086
 S          4.0444194210        1.0856070452        0.3544396978
 O          4.8726241903        0.7796395041       -0.7838299994
 O          4.6814960487        1.7904428625        1.4423199314
 C          2.6015479855        1.9906545642       -0.1775899710
 C          2.1352371609        3.0235200793        0.6111926746
 C          1.0233913416        3.7374190456        0.1950447216
 C          0.3951388399        3.4005462713       -0.9940119228
 C          0.8616922828        2.3462721357       -1.7643752178
 C          1.9777324351        1.6329552676       -1.3564880896
 H          2.3739006340        0.8171443178       -1.9392013184
 H          0.3631604493        2.0777633371       -2.6826208704
 H         -0.4605496532        3.9670510127       -1.3268851515
 H          0.6521867414        4.5530324373        0.7946492912
 H          2.6618505503        3.2579610474        1.5222317462
 H          3.0961024330       -0.1504897792        1.9364646581
 H          4.1242688510       -1.3737637284       -1.3207275206
 H          2.7379683013       -2.9566544666       -2.6283899178
 H          0.5398451989       -3.6709559993       -1.7879610835
 H         -0.6228682435       -2.8392216802        1.6564278147
 C         -1.1953003078       -4.2314686940        0.1447815551
 C         -0.5548120931       -5.4511574472        0.7346825591
 C         -1.9455230362       -5.0656990886        1.1377927160
 H         -2.7708381433       -5.6661700442        0.7857192689
 H         -2.0956563921       -4.6561119647        2.1261687241
 H         -0.4225291989       -6.3191194721        0.1072644716
 H          0.2407599134       -5.3000380052        1.4488276998
 H         -1.5230652965       -4.2793216848       -0.8853650971
