  62
        -98.94146199
 C         -1.7485718299       -0.8839801103        0.2083484292
 C         -1.9807385995        0.4930685798       -0.0534168909
 C         -3.2845439893        0.8414506400       -0.6306609712
 C         -4.1626139595       -0.1405579498       -0.9027428313
 C         -5.5465444393        0.0684872204       -1.4441172616
 C         -6.5708666395        0.2098760307       -0.3095621619
 C         -6.1603014996        1.2104250406        0.7708091382
 H         -6.9711510797        1.2512168708        1.5014041680
 H         -5.2781330098        0.8304834204        1.2911776284
 C         -5.8701024992        2.6245386605        0.2485974782
 H         -6.3073180289        2.7502794506       -0.7425688919
 H         -6.3530144792        3.3474256106        0.9095507981
 C         -4.3852434891        2.9895898902        0.1977135986
 H         -3.9225764493        2.7748420202        1.1642276187
 H         -4.3063103188        4.0668055002        0.0289917485
 C         -3.5632352890        2.2944023001       -0.8951071613
 H         -4.0544957788        2.4219646501       -1.8618867514
 H         -2.5856996789        2.7831807099       -0.9381129110
 H         -7.5267177094        0.5103751408       -0.7426402221
 H         -6.7032704698       -0.7671087393        0.1610659581
 H         -5.5555206190        0.9592729504       -2.0692291417
 H         -5.8112180194       -0.7961780395       -2.0550149117
 O         -3.8978695998       -1.4486028299       -0.6672675413
 C         -2.6971873500       -1.8583108301       -0.1033338910
 O         -2.6249947003       -3.0932945701        0.0534682391
 H          1.9447346103       -0.0908314010        0.2200088300
 C          1.7790975902       -0.9917187810       -0.3506522100
 C          0.5983179101       -1.7005251808       -0.1849989903
 C          0.3915603300       -2.8470539607       -0.9447226003
 C          1.3523045901       -3.2684538809       -1.8453807701
 C          2.5411328703       -2.5741930412       -1.9880052698
 C          2.7573506803       -1.4276907912       -1.2332336198
 N          3.9456541405       -0.6958091215       -1.3584675696
 S          4.6459240404        0.0102340984       -0.0118718094
 O          6.0391879205        0.1671470481       -0.3712324391
 O          4.3799680099       -0.7497920415        1.1866778505
 C          3.8934546907        1.6194693986        0.0892452504
 C          3.3332352805        2.0414303987        1.2781141503
 C          2.7702891507        3.3060017288        1.3431875801
 C          2.7790728711        4.1225759888        0.2234024001
 C          3.3493382013        3.6855410587       -0.9626654998
 C          3.9141173511        2.4226689586       -1.0335635896
 H          4.3687324712        2.0493894884       -1.9360497795
 H          3.3526839616        4.3244718687       -1.8311331898
 H          2.3365453913        5.1047910589        0.2763096600
 H          2.3231648206        3.6459960589        2.2635982800
 H          3.3422145402        1.3720920387        2.1244211903
 H          4.6336610406       -1.0996343616       -1.9770141394
 H          3.2964133604       -2.9160214314       -2.6794880996
 H          1.1801061701       -4.1573123209       -2.4336827201
 H         -0.5279728301       -3.3987655106       -0.8246270505
 C         -0.4104954801       -1.2310834205        0.8361249195
 H         -0.0364450500       -0.2842879806        1.2494769096
 C         -0.5027552605       -2.2390049805        1.9666712895
 C          0.6663384792       -2.3852295907        2.8928920198
 C         -0.6022947007       -1.7527663205        3.3796978095
 H         -1.2206808910       -2.3043292003        4.0719786793
 H         -0.6100653606       -0.6848032905        3.5424327795
 H          1.5263677794       -1.7542556609        2.7201689699
 H          0.9178244290       -3.3722942208        3.2499767298
 H         -1.0521721806       -3.1333861904        1.7037473094
 O         -1.1331369894        1.3919011096        0.1941779393
