  62
        -98.94114694
 C          2.5680956406        1.2224480734        0.4224036229
 C          2.4841283949        0.4437956878       -0.7589974660
 C          3.3392370531       -0.7543912702       -0.7989567114
 C          4.1151806603       -1.0535259594        0.2576578233
 C          4.9933104436       -2.2657065221        0.3658017097
 C          4.2447116161       -3.4372583481        1.0164063857
 C          2.8690626729       -3.7071778978        0.4058464794
 H          2.4470253268       -4.5727217535        0.9215762002
 H          2.2098149106       -2.8604130353        0.6136085554
 C          2.8861120081       -3.9720802419       -1.1060979385
 H          3.8951635422       -4.2370403834       -1.4243410376
 H          2.2425976264       -4.8286479084       -1.3177333405
 C          2.3738702891       -2.8110572177       -1.9610079023
 H          2.2252544871       -3.1801634052       -2.9794480064
 H          1.3978357929       -2.4834042507       -1.5909664670
 C          3.2958669860       -1.5879858344       -2.0485090142
 H          2.9019721478       -0.9344236533       -2.8324180508
 H          4.3003755383       -1.9052384375       -2.3362958541
 H          4.8628657153       -4.3326323400        0.9311909721
 H          4.1102205347       -3.2164989699        2.0778663023
 H          5.8566552491       -2.0109228419        0.9827746336
 H          5.3380944701       -2.5474951103       -0.6270398789
 O          4.1454844231       -0.3003496011        1.3868365321
 C          3.3614954957        0.8361748243        1.5053546655
 O          3.4518740782        1.4044535488        2.6122555348
 O          1.7437681895        0.7224190941       -1.7364230763
 C          1.7302683945        2.4762370381        0.6131319827
 C          0.3067453918        2.2065434750        0.1900770114
 C         -0.3539257834        2.9110500078       -0.8066672470
 C         -1.6573966007        2.5888944862       -1.1427911309
 C         -2.3297880029        1.5697564389       -0.4940610180
 C         -1.6762730713        0.8543524559        0.5009735487
 C         -0.3726950066        1.1821003061        0.8385387132
 H          0.1398127669        0.6203845500        1.6116086457
 N         -2.3519495524       -0.1765620924        1.1778183727
 S         -3.1706584249       -1.3318347648        0.2744882153
 O         -3.2207875143       -2.5014682871        1.1256084703
 O         -2.5802144702       -1.5117128309       -1.0309877989
 C         -4.8116052285       -0.6574680282        0.1218756613
 C         -5.4972403161       -0.3476437546        1.2801099320
 C         -6.7753390711        0.1782703976        1.1808260348
 C         -7.3442727528        0.3813983060       -0.0677574631
 C         -6.6447950312        0.0605726599       -1.2210256565
 C         -5.3652082907       -0.4649722271       -1.1285711564
 H         -4.7814190105       -0.7245187937       -1.9976035444
 H         -7.0888329658        0.2180495935       -2.1907898688
 H         -8.3389403754        0.7916828495       -0.1425177876
 H         -7.3225469012        0.4282803381        2.0754553215
 H         -5.0207373811       -0.5252010314        2.2297310752
 H         -1.7977025733       -0.6195901216        1.8963272374
 H         -3.3425394923        1.3135541001       -0.7586749600
 H         -2.1567780116        3.1387129149       -1.9259894005
 H          0.1605262188        3.6925486288       -1.3408718614
 H          1.7261732220        2.6487136338        1.7025051083
 C          2.3223337124        3.7280231517       -0.0166134693
 C          3.8047469941        3.8827660430       -0.1757046408
 C          2.9330316428        3.7318379204       -1.3843389543
 H          2.7761088286        4.5971988063       -2.0116955461
 H          2.9549561676        2.7992607481       -1.9250302254
 H          4.2440168979        4.8477915912        0.0277464010
 H          4.4288546502        3.0496829674        0.1142765660
 H          1.7778087349        4.6204309227        0.2763047498
