  62
        -98.94386075
 C         -1.6668510733       -1.4295483045        0.5681604684
 C         -2.6610310378       -1.0676115391       -0.3735351198
 C         -3.4851493702        0.0985836775       -0.0146203029
 C         -3.2031142554        0.7979252912        1.0986484359
 C         -3.9210769807        2.0398881450        1.5398719115
 C         -3.2667812974        3.3064069524        0.9700177790
 C         -2.9987657748        3.2424051561       -0.5335300047
 H         -2.5679087499        4.2019249801       -0.8278823979
 H         -2.2498974646        2.4721246598       -0.7314558377
 C         -4.2420240741        2.9649570943       -1.3896107977
 H         -4.2399571487        3.6464736362       -2.2428256673
 H         -5.1449119873        3.1713451934       -0.8135653692
 C         -4.3140730669        1.5451417580       -1.9532066878
 H         -3.3730719470        1.2989157865       -2.4511657564
 H         -5.1019753227        1.5188054453       -2.7107310575
 C         -4.6235732867        0.4413644136       -0.9345165655
 H         -5.5119255493        0.7109653906       -0.3593325652
 H         -4.8417719961       -0.4725163387       -1.4946685951
 H         -3.9161353154        4.1558970521        1.1898584328
 H         -2.3159245219        3.4668206569        1.4832374060
 H         -4.9598697824        1.9818402706        1.2199759058
 H         -3.8903440481        2.0849621030        2.6299987130
 O         -2.1866692078        0.4682423393        1.9368422281
 C         -1.4102410379       -0.6521867167        1.7017829562
 O         -0.5283412872       -0.8516194220        2.5617623823
 O         -2.8747921781       -1.6688189316       -1.4577121968
 C         -0.7332024260       -2.6189502469        0.3860959622
 C          0.4676592816       -2.1231152118       -0.3811949967
 C          0.3983037555       -1.8049338416       -1.7335427621
 C          1.4899203983       -1.2511440355       -2.3778339106
 C          2.6629940083       -0.9903820365       -1.6895705450
 C          2.7374703890       -1.3012809751       -0.3388115291
 C          1.6488370198       -1.8750260815        0.3021532140
 H          1.7042453647       -2.0946280294        1.3597629570
 N          3.9094353363       -0.9994774773        0.3816669152
 S          4.4709199776        0.5714787331        0.2380847494
 O          5.2743561923        0.6844668451       -0.9538977229
 O          5.1542736463        0.8518279926        1.4815313736
 C          3.0181403476        1.5981062022        0.0748212271
 C          2.9370241645        2.4882184011       -0.9768453021
 C          1.8121670999        3.2883515441       -1.0946915500
 C          0.7866841210        3.1784203011       -0.1685154895
 C          0.8789806736        2.2738005457        0.8776609830
 C          2.0060202066        1.4788311802        1.0067501826
 H          2.0872027372        0.7729786714        1.8181872480
 H          0.0774606616        2.1680622443        1.5926516665
 H         -0.0903754281        3.7991205193       -0.2608317471
 H          1.7354708744        3.9915503225       -1.9081894232
 H          3.7531940643        2.5334627020       -1.6794701048
 H          3.8586312693       -1.2646584055        1.3551564348
 H          3.5155963437       -0.5410101148       -2.1729073727
 H          1.4245774336       -1.0065588931       -3.4270398253
 H         -0.5271335162       -1.9665488462       -2.2645390281
 H         -0.3935289033       -2.8897212045        1.3952101773
 C         -1.3728149888       -3.8388382591       -0.2394217947
 C         -0.6989394999       -5.1662353077       -0.0693301335
 C         -1.9821958261       -4.8791279294        0.6494966503
 H         -2.8828063532       -5.3741944068        0.3189678628
 H         -1.9432639401       -4.7140671035        1.7167263763
 H         -0.7155888692       -5.8614785643       -0.8943658538
 H          0.2115014841       -5.1955704229        0.5106724666
 H         -1.8695928064       -3.6427585197       -1.1790248934
