  62
        -98.94088761
 C         -1.9608626403       -0.7521976503        0.2961380500
 C         -2.9312738501       -0.3027077007        1.2273189004
 C         -4.3216244602       -0.2901068203        0.7625054407
 C         -4.6111754705       -0.7166213396       -0.4800290495
 C         -5.9821351306       -0.7831572991       -1.0964969493
 C         -6.4594055405        0.5444374112       -1.7012007886
 C         -6.8458693802        1.6212027807       -0.6862743179
 H         -7.3645236802        2.4086544911       -1.2368184075
 H         -7.5542889202        1.2056416304        0.0310880419
 C         -5.6581496401        2.2432562102        0.0614801722
 H         -5.7656096299        3.3302491002        0.0761808428
 H         -4.7325074402        2.0218732704       -0.4749857781
 C         -5.5104196199        1.7833041895        1.5118928419
 H         -4.6180568298        2.2551627792        1.9313671720
 H         -6.3728494297        2.1186291793        2.0923346222
 C         -5.3677290500        0.2650991394        1.6809719111
 H         -5.0504163999        0.0628918288        2.7069969610
 H         -6.3259166401       -0.2246296104        1.5081949310
 H         -5.6780075606        0.9294886715       -2.3605601185
 H         -7.3349450406        0.3257577116       -2.3169028285
 H         -6.7024396205       -1.1249937294       -0.3526542894
 H         -5.9283476808       -1.5256576787       -1.8956457397
 O         -3.6580493706       -1.1672174993       -1.3362249399
 C         -2.3125566206       -1.1822513496       -0.9848943801
 O         -1.5642007308       -1.5918224892       -1.8916202905
 O         -2.6451641299        0.0633195187        2.3997418306
 C         -0.5197569903       -0.7659057807        0.7578099698
 C          0.3143356098        0.3776389695        0.2243253703
 C         -0.0525431403        1.1372571901       -0.8778241193
 C          0.7723494097        2.1453802803       -1.3491679989
 C          1.9791437298        2.4181734298       -0.7323770989
 C          2.3563964799        1.6656284792        0.3722926506
 C          1.5270706499        0.6585952091        0.8430312402
 H          1.8295563800        0.0816778586        1.7047786499
 N          3.6029151201        1.9227349388        0.9858888105
 S          4.9452381799        1.4871907391        0.0788387601
 O          6.0798379300        1.6359256785        0.9601723800
 O          4.9621694698        2.2661621597       -1.1313045395
 C          4.6777345096       -0.2370966007       -0.2938823208
 C          5.2575788697       -1.1942693112        0.5149728987
 C          4.9857596695       -2.5308879010        0.2723631580
 C          4.1288798693       -2.8839269004       -0.7594006720
 C          3.5483660892       -1.9104059399       -1.5579627614
 C          3.8246695694       -0.5724380500       -1.3267623008
 H          3.3955838994        0.2082502003       -1.9334374503
 H          2.8755785191       -2.1856828594       -2.3547370615
 H          3.9122972891       -3.9244453903       -0.9458868125
 H          5.4363153395       -3.2915102014        0.8897324275
 H          5.9169391598       -0.8753153716        1.3061835487
 H          3.6835521702        1.5134217583        1.9069346803
 H          2.6405990099        3.1862629700       -1.0983565387
 H          0.4688001396        2.7234541408       -2.2090425885
 H         -0.9861389904        0.9302074405       -1.3784055892
 H         -0.5726462201       -0.6528745812        1.8504992999
 C          0.1801808096       -2.0777650106        0.4424544190
 C          1.1229955196       -2.6938165012        1.4300398085
 C         -0.2154556105       -3.3199982709        1.1805983484
 H         -0.2663202106       -4.2487101306        0.6332487580
 H         -0.9735869303       -3.2230723612        1.9445286186
 H          2.0055785095       -3.1894941411        1.0565148881
 H          1.2648575998       -2.1943004217        2.3766073888
 H          0.4116783694       -2.1849603901       -0.6098265411
