  62
        -98.94473096
 C          0.3438069508        1.7997519102       -0.9424396248
 C          1.4430062773        2.2337028069       -0.1593065126
 C          2.6958973314        1.4843065998       -0.3097678101
 C          2.7385126584        0.4460099421       -1.1631601135
 C          3.9512002062       -0.3996997450       -1.4277107389
 C          4.0060311025       -1.6354615678       -0.5200944092
 C          3.7513078979       -1.3347022624        0.9570949651
 H          2.7183106847       -1.0024522591        1.0933685919
 H          3.8489295867       -2.2775678898        1.5017196466
 C          4.7058905177       -0.2971829039        1.5648004450
 H          5.0275060432       -0.6557595867        2.5450364090
 H          5.5981372352       -0.2055779830        0.9434587231
 C          4.0918423516        1.0877375477        1.7795872816
 H          4.7562301753        1.6556495377        2.4369213649
 H          3.1320081422        0.9822222110        2.2931392834
 C          3.8721293084        1.9254234763        0.5132202049
 H          4.7858233713        1.9359468167       -0.0852609838
 H          3.6523387092        2.9509454710        0.8246097560
 H          4.9878934412       -2.1004532438       -0.6314986155
 H          3.2547400617       -2.3531968544       -0.8577133692
 H          3.9177710299       -0.7267377063       -2.4686558421
 H          4.8419739998        0.2080428114       -1.2786170485
 O          1.6632961034        0.0422381028       -1.8818133310
 C          0.4285022797        0.6776491636       -1.7680550499
 O         -0.4623519000        0.1500538857       -2.4556891274
 O          1.3798289813        3.2254397153        0.6183969023
 C         -0.9561327132        2.5633952865       -0.7548535292
 C         -1.6809951897        2.0399137153        0.4596395180
 C         -2.2731836751        2.8956086636        1.3809160229
 C         -2.9027233215        2.3891488745        2.5045878642
 C         -2.9247965697        1.0271397161        2.7469081726
 C         -2.3292872732        0.1648368462        1.8338032039
 C         -1.7418739636        0.6730308367        0.6860806969
 H         -1.2955451606       -0.0045568309       -0.0250141116
 N         -2.3021591459       -1.2226436661        2.0393846336
 S         -0.9087477820       -2.0546204165        1.6108555758
 O         -0.9416351513       -3.2524662547        2.4269268971
 O          0.2688236091       -1.2305887353        1.7579220929
 C         -1.1471110216       -2.5220804129       -0.0876376385
 C         -0.0330500094       -2.6520391068       -0.8904598782
 C         -0.1947833134       -3.0514087897       -2.2062950739
 C         -1.4646002079       -3.3166451309       -2.6920278047
 C         -2.5739119132       -3.1879756466       -1.8709258262
 C         -2.4183307435       -2.7903333015       -0.5531763274
 H         -3.2593471299       -2.6706290980        0.1096265559
 H         -3.5607374388       -3.3892511472       -2.2560152375
 H         -1.5894928664       -3.6172328790       -3.7203121060
 H          0.6675052622       -3.1374790183       -2.8479107352
 H          0.9340178312       -2.4136105188       -0.4756194159
 H         -2.6676045645       -1.5338609557        2.9279632526
 H         -3.3877834585        0.6333054397        3.6388336019
 H         -3.3610074121        3.0629408744        3.2125081989
 H         -2.2185517818        3.9629378004        1.2247097675
 H         -0.6529108123        3.5994031375       -0.5311366314
 C         -1.8357594052        2.6008585598       -1.9949801945
 C         -3.0764587046        1.7774304236       -2.1411538018
 C         -3.1833764537        3.2584378914       -1.9468092185
 H         -3.4867630807        3.8705627763       -2.7824881951
 H         -3.5335046772        3.6114690166       -0.9888703663
 H         -3.2855090412        1.3579938459       -3.1127541628
 H         -3.3538583114        1.1321338593       -1.3223416084
 H         -1.2521684274        2.7525540888       -2.8968935043
