  62
        -98.94270256
 C         -1.8082929791       -0.9526216080       -0.2960900339
 C         -3.1782224237       -1.3162130443       -0.2415338848
 C         -4.1423863950       -0.2494861765       -0.5319503850
 C         -3.7003546040        0.9883727255       -0.8179521976
 C         -4.5564534452        2.1782932258       -1.1571235911
 C         -5.1067751044        2.9210927476        0.0682165934
 C         -6.2204573246        2.1951405369        0.8240813590
 H         -7.0021839343        1.9004637552        0.1232019331
 H         -6.6595536144        2.9157033239        1.5169736207
 C         -5.7511115003        0.9692535673        1.6200453196
 H         -6.1903260491        0.9938955116        2.6199174000
 H         -4.6667242784        1.0105970902        1.7462760104
 C         -6.1254378107       -0.3745406267        0.9946331264
 H         -7.2120754204       -0.4849237946        0.9853534803
 H         -5.7118790342       -1.1709851688        1.6186952173
 C         -5.6024981501       -0.5736757291       -0.4339160188
 H         -6.1753425660        0.0357641520       -1.1327405458
 H         -5.7287514746       -1.6257947071       -0.7013905714
 H         -5.4995461046        3.8786855859       -0.2812527173
 H         -4.2797429657        3.1300434726        0.7506498637
 H         -5.3830081858        1.8648383071       -1.7955359919
 H         -3.9231186771        2.8665048385       -1.7210125046
 O         -2.3790983083        1.3022876122       -0.8453984997
 C         -1.4014448972        0.3538337378       -0.5675346506
 O         -0.2429363451        0.8065270927       -0.5972111191
 O         -3.5753840764       -2.4779314484        0.0403929581
 C         -0.7821560854       -2.0287414289        0.0059842442
 C          0.2623752283       -1.5153564024        0.9658259875
 C         -0.1495377484       -1.0388055293        2.2086446714
 C          0.7687210371       -0.5619285662        3.1225130412
 C          2.1196216965       -0.5548361002        2.8203224317
 C          2.5439618117       -1.0361267297        1.5880546620
 C          1.6162701197       -1.5156294001        0.6710654970
 H          1.9720818759       -1.8652687499       -0.2828502600
 N          3.9143424483       -1.0897302874        1.2858367340
 S          4.5636106338       -0.6208377091       -0.1799680818
 O          3.9434309031       -1.3504491114       -1.2552338778
 O          5.9877006023       -0.8177745316       -0.0157572178
 C          4.2310446899        1.1265666760       -0.3192440856
 C          2.9409014735        1.5593582065       -0.5507195148
 C          2.6994743654        2.9233490781       -0.6154475091
 C          3.7396638498        3.8246531358       -0.4526862883
 C          5.0300263992        3.3720148291       -0.2202963148
 C          5.2789917893        2.0114753783       -0.1484216003
 H          6.2650167063        1.6136312616        0.0296333942
 H          5.8389898441        4.0735502168       -0.0939528829
 H          3.5426905334        4.8839235045       -0.5068182812
 H          1.6894121276        3.2588755342       -0.7897093170
 H          2.1331437781        0.8553428248       -0.6709077978
 H          4.5137070160       -0.7781664243        2.0365708674
 H          2.8393270979       -0.1841321832        3.5344101243
 H          0.4326325002       -0.1903313052        4.0789280569
 H         -1.2053858190       -1.0427125197        2.4446417961
 H         -1.3563855865       -2.8155877089        0.5248276119
 C         -0.1836120434       -2.6781452243       -1.2328286566
 C         -0.9355243630       -2.7385358995       -2.5277105973
 C          0.2842596568       -1.8771837654       -2.4093423398
 H          1.1926759156       -2.1827397121       -2.9084571389
 H          0.1552359332       -0.8070007772       -2.3680628863
 H         -0.8747667435       -3.6437313132       -3.1130425504
 H         -1.8998273674       -2.2531385944       -2.5723150424
 H          0.4050449978       -3.5566364874       -0.9844588722
