  62
        -98.94461823
 C         -1.6961373403       -1.1947383210       -0.4081831699
 C         -3.0405817102       -1.3527204617        0.0035415601
 C         -3.9268051508       -0.2143904020       -0.2639671596
 C         -3.4365289413        0.8874526183       -0.8610294693
 C         -4.2181166319        2.1259249481       -1.2076738989
 C         -4.3767229923        3.1129624877       -0.0428201887
 C         -5.3506572920        2.6778585370        1.0530186013
 H         -5.5334921524        3.5498950067        1.6841688915
 H         -6.3034015219        2.3984166266        0.6020503913
 C         -4.8400843715        1.5299516470        1.9351598409
 H         -3.7586257114        1.4315655475        1.8155170308
 H         -5.0253681215        1.7670984166        2.9853122510
 C         -5.4934198108        0.1768178968        1.6544955106
 H         -5.0317910605       -0.5694230832        2.3062740104
 H         -6.5567870309        0.2245913662        1.8998630207
 C         -5.3477390207       -0.3045966828        0.2051763305
 H         -6.0022663310        0.2705276670       -0.4494934693
 H         -5.6455808002       -1.3552663129        0.1621921003
 H         -3.3938567824        3.2965306680        0.3969091813
 H         -4.7351484728        4.0559504076       -0.4620503484
 H         -5.2023923618        1.8451006177       -1.5837048890
 H         -3.6696948722        2.6251312485       -2.0091792489
 O         -2.1381722114        0.9963779490       -1.2488843394
 C         -1.2334113709       -0.0341986406       -1.0303043997
 O         -0.0806232611        0.2002165300       -1.4345825697
 O         -3.4777981697       -2.3925610820        0.5657328199
 C         -0.7094782098       -2.3195379806       -0.1473646103
 C          0.4148896800       -1.7826473603        0.7014035598
 C          0.1127720499       -1.2784911207        1.9641448899
 C          1.0945478796       -0.7159222905        2.7563221800
 C          2.4013102496       -0.6383807297        2.3052513599
 C          2.7124571397       -1.1376516393        1.0486290698
 C          1.7257307199       -1.7154366095        0.2594652197
 H          1.9868006501       -2.0941441592       -0.7160022504
 N          4.0386582797       -1.0565743785        0.5771180197
 S          4.7358307089        0.4649064918        0.4905415700
 O          5.9192864190        0.2898917826       -0.3210701001
 O          4.9506961688        0.9605181016        1.8267788101
 C          3.5465846384        1.4811351015       -0.3623864796
 C          2.5965417181        2.1696331608        0.3633747806
 C          1.6379857578        2.9013154806       -0.3176619391
 C          1.6429793577        2.9289265109       -1.7025595091
 C          2.6058062079        2.2339060915       -2.4164351494
 C          3.5647394883        1.4973454218       -1.7423050996
 H          4.3324873885        0.9448496523       -2.2606158698
 H          2.6036420478        2.2551380218       -3.4945505694
 H          0.8866140474        3.4897338007       -2.2286204690
 H          0.8827425775        3.4388358301        0.2336248810
 H          2.6237327882        2.1246704606        1.4400406206
 H          4.1721461898       -1.5315322383       -0.3048246804
 H          3.1783762694       -0.1875272495        2.9010472100
 H          0.8428497195       -0.3300292408        3.7328491401
 H         -0.9104394001       -1.3262196113        2.3117070600
 H         -1.2625911194       -3.0678560510        0.4377831696
 C         -0.2605179296       -2.9510759300       -1.4475421705
 C          0.3010689610       -4.3408237298       -1.4506621309
 C         -1.0598021891       -4.0805587003       -2.0215474507
 H         -1.1887474192       -4.1283701001       -3.0924737007
 H         -1.9232068989       -4.4123452508       -1.4638558307
 H          1.1061995411       -4.5722617792       -2.1317099910
 H          0.3644535113       -4.8552944000       -0.5037851910
 H          0.1510438000       -2.2297600097       -2.1448021703
