  62
        -98.94477773
 C          1.2202189811        1.5217599295        0.3616623784
 C          1.7657864612        0.5763282996        1.2665014784
 C          2.8922024106       -0.2215236310        0.7722423580
 C          3.3207266300       -0.0551866216       -0.4915744422
 C          4.4612933794       -0.7875953122       -1.1438599626
 C          4.0711553385       -2.1625389523       -1.7031555820
 C          3.8502840186       -3.2534225418       -0.6544773715
 H          3.8177204280       -4.2055692220       -1.1879756012
 H          4.7058066390       -3.2866797020        0.0215604180
 C          2.5553828991       -3.1044790011        0.1566560391
 H          1.8615346991       -2.4458211510       -0.3730674207
 H          2.0597191988       -4.0762449809        0.2281105797
 C          2.7558576301       -2.5951642407        1.5845588288
 H          1.7721077404       -2.4860329602        2.0485075593
 H          3.3159663301       -3.3367528807        2.1593104188
 C          3.4848808707       -1.2493866110        1.6886646880
 H          4.5451605505       -1.3811099215        1.4732495575
 H          3.3776842214       -0.8822864906        2.7126245280
 H          3.1649532482       -2.0523038321       -2.3043165115
 H          4.8758518480       -2.4850401828       -2.3683491623
 H          5.2817729097       -0.9003945523       -0.4343128330
 H          4.8001402992       -0.1616963826       -1.9723393430
 O          2.7531931599        0.8389427184       -1.3418702522
 C          1.6726599604        1.6231015489       -0.9550970219
 O          1.2316566202        2.3507176388       -1.8643969219
 O          1.3257961817        0.4032606301        2.4346257687
 C          0.0148773516        2.3188593102        0.8248879287
 C         -1.1248761289        2.1625861903       -0.1528049206
 C         -1.9667273487        3.1945135305       -0.5461548405
 C         -3.0124191193        2.9464050307       -1.4197937999
 C         -3.2540506401        1.6740075406       -1.9041940093
 C         -2.4130814703        0.6348385004       -1.5202056194
 C         -1.3660461897        0.8897076602       -0.6521747901
 H         -0.6965395399        0.0867411801       -0.3882667602
 N         -2.6029689610       -0.6689376097       -1.9942450989
 S         -2.0414793211       -1.9845008496       -1.1395877988
 O         -0.6068342312       -2.0821387303       -1.2442468795
 O         -2.7889521818       -3.1002008295       -1.6808434781
 C         -2.5355755501       -1.6930504289        0.5502512014
 C         -1.5859776995       -1.5644898890        1.5423428508
 C         -1.9967124287       -1.2855948684        2.8359472709
 C         -3.3471558985       -1.1468094378        3.1152182516
 C         -4.2923043991       -1.2941579277        2.1109248122
 C         -3.8854069899       -1.5666509583        0.8153129420
 H         -4.5922312904       -1.6907021883        0.0111966524
 H         -5.3420796890       -1.1903410972        2.3330561927
 H         -3.6628002979       -0.9228064773        4.1219314417
 H         -1.2526483883       -1.1614392985        3.6068433805
 H         -0.5406881897       -1.6664633095        1.2936624403
 H         -3.4645335614       -0.8441394395       -2.4872151684
 H         -4.0699691905        1.4859730807       -2.5847650488
 H         -3.6534556391        3.7590810908       -1.7260696798
 H         -1.7961871481        4.1961750506       -0.1876720309
 H         -0.2910199781        1.8136186806        1.7582285491
 C          0.3052691724        3.7651409602        1.1995633681
 C          1.7030613127        4.2390504197        1.4602642473
 C          0.9620839023        4.7213090596        0.2511212775
 H          0.6194902927        5.7457371397        0.2361700073
 H          1.2526575816        4.3396514892       -0.7146926325
 H          1.8674975934        4.9271568099        2.2760846569
 H          2.5078333324        3.5325704093        1.3147462670
 H         -0.4612223471        4.1784884507        1.8477373084
