  62
        -98.94091730
 C         -1.1509088190       -1.2578717963        0.0539115441
 C         -1.5854635410       -0.1917951833        0.8755499127
 C         -2.7096251965        0.6061875157        0.3666733556
 C         -3.2121582776        0.3248423963       -0.8492866702
 C         -4.3946661069        1.0022539792       -1.4819230131
 C         -5.7030807848        0.4792303430       -0.8552563263
 C         -6.4899410522        1.5292871917       -0.0708569201
 H         -6.9919510382        2.1959177977       -0.7751592179
 H         -7.2626124689        1.0043557843        0.4947809468
 C         -5.6699109749        2.3951524584        0.8901949044
 H         -6.3797106116        2.8964755778        1.5516552109
 H         -5.1575331952        3.1801556716        0.3317327582
 C         -4.6381590629        1.6509195548        1.7473968028
 H         -4.6449873686        2.0924807808        2.7459941810
 H         -4.9165279267        0.6029771184        1.8604943285
 C         -3.1901170972        1.7397754747        1.2301846835
 H         -3.0448684940        2.6857469577        0.6997164855
 H         -2.5121618908        1.7431290120        2.0892240158
 H         -5.4565145120       -0.3582803966       -0.1994477339
 H         -6.3490585677        0.0838841969       -1.6405387326
 H         -4.3100163332        2.0795307564       -1.3549300767
 H         -4.3652238402        0.7753007332       -2.5479785481
 O         -2.7372528960       -0.6789918244       -1.6316717726
 C         -1.6916842655       -1.4880564694       -1.2101753768
 O         -1.3474047044       -2.3542193286       -2.0364843056
 H          0.8086019914        0.1627981747       -0.5959658838
 C          1.4828409005       -0.6452260585       -0.8336272072
 C          1.2072700290       -1.9260193427       -0.3756020782
 C          2.0736858758       -2.9537135977       -0.7273019545
 C          3.1747600338       -2.6966311794       -1.5260872470
 C          3.4533786350       -1.4151393510       -1.9658509260
 C          2.5957602012       -0.3792246718       -1.6139428898
 N          2.8353086867        0.9406912976       -2.0252026074
 S          2.4729375228        2.1978143190       -0.9820555778
 O          1.0508615720        2.4329534266       -0.9482034489
 O          3.2798854957        3.2995661183       -1.4635468149
 C          3.0813651074        1.6570642408        0.6058273711
 C          4.4533535473        1.5828585138        0.7579219609
 C          4.9749488004        1.1185391368        1.9533958524
 C          4.1188104164        0.7307072819        2.9734368972
 C          2.7459216712        0.8163289694        2.8076456341
 C          2.2170121307        1.2842001819        1.6141478482
 H          1.1501257644        1.3516205768        1.4676390994
 H          2.0713233488        0.5168967500        3.5940554542
 H          4.5225142841        0.3619306262        3.9031395694
 H          6.0430273223        1.0566094968        2.0855327142
 H          5.0847706787        1.9042184131       -0.0544200412
 H          3.7112562668        1.0873487478       -2.5045834464
 H          4.3166767853       -1.2168446897       -2.5821143961
 H          3.8329112461       -3.5061457570       -1.8025271550
 H          1.8822672762       -3.9568921871       -0.3835644406
 C          0.0072598234       -2.1191805527        0.5199408025
 H          0.2739965024       -1.7319728914        1.5157367629
 C         -0.4168355588       -3.5663725598        0.6587888638
 C          0.2023801039       -4.4397081324        1.7078256055
 C         -1.2126792925       -3.9725040662        1.8620397315
 H         -2.0123282293       -4.6865582294        1.7344284324
 H         -1.4237109355       -3.2089455474        2.5966583124
 H          0.3732186424       -5.4802909825        1.4765782073
 H          0.9519580615       -3.9989418555        2.3473719716
 H         -0.6839856153       -4.0134351426       -0.2919317252
 O         -1.0510858087        0.0826724400        1.9850712267
