  62
        -98.93452720
 C         -1.5964604612       -1.0846873460        0.8257808470
 C         -2.8203600663       -1.3213863292        0.1561227382
 C         -3.8624423945       -0.2847189434        0.3178303117
 C         -3.5924487168        0.8181810402        1.0354262472
 C         -4.4817332692        2.0094999742        1.2629204290
 C         -4.2148836459        3.0988232249        0.2099902192
 C         -5.0264467109        2.9627690371       -1.0775552217
 H         -6.0724306288        3.1973102746       -0.8690196750
 H         -4.6553227996        3.7153322790       -1.7770006564
 C         -4.9574463235        1.5896318582       -1.7505811416
 H         -3.9288165304        1.2247494681       -1.7375311869
 H         -5.2429020833        1.7144719012       -2.7969125455
 C         -5.8869736790        0.5529519954       -1.1026069210
 H         -6.5772071580        1.0625122386       -0.4304456605
 H         -6.4993886470        0.0828417670       -1.8750289788
 C         -5.1768586253       -0.5825103876       -0.3517387089
 H         -5.8609270391       -0.9971649125        0.3966063419
 H         -4.9522011269       -1.3942830702       -1.0509312165
 H         -3.1477739799        3.0832303401       -0.0253303998
 H         -4.4391241009        4.0728678175        0.6494920584
 H         -5.5270167744        1.7153439649        1.2688085978
 H         -4.2233388583        2.4056094869        2.2472984366
 O         -2.3856057558        1.0231938737        1.6338188719
 C         -1.3746363682        0.0864196250        1.5539718377
 O         -0.3343528023        0.4007379876        2.1668485630
 H          2.2397974843       -1.5566936525        0.8824074987
 C          1.8428745793       -1.4684246325       -0.1175019359
 C          0.4955387414       -1.6937294580       -0.3540561613
 C          0.0101906130       -1.5649145672       -1.6524638394
 C          0.8620752671       -1.2222809267       -2.6857663517
 C          2.2043138233       -0.9839172917       -2.4435277009
 C          2.6976262369       -1.1044580668       -1.1501285231
 N          4.0575971485       -0.8805448767       -0.8768277473
 S          4.5070145458        0.0962681407        0.4076590379
 O          5.9176127266        0.3359419269        0.1956985268
 O          4.1499125839       -0.5331970757        1.6520457885
 C          3.6000191166        1.6118975877        0.1623287386
 C          2.3296949979        1.7561180163        0.6816639939
 C          1.6302858661        2.9233134871        0.4143493606
 C          2.2044144120        3.9189428984       -0.3596011972
 C          3.4839971427        3.7590842584       -0.8710941677
 C          4.1870466038        2.5944404432       -0.6131264383
 H          5.1869902715        2.4325566465       -0.9822077586
 H          3.9319145565        4.5365191834       -1.4688348143
 H          1.6529477538        4.8238903005       -0.5611134516
 H          0.6371113189        3.0331701112        0.8215215154
 H          1.8879699841        0.9807678473        1.2876185801
 H          4.6089429510       -0.6554027482       -1.6929213671
 H          2.8666881669       -0.7088836174       -3.2502174082
 H          0.4764617918       -1.1311268405       -3.6899239690
 H         -1.0383530986       -1.7427357456       -1.8387926327
 C         -0.4207399766       -2.0477210480        0.7889572794
 H          0.1359500011       -1.8607225078        1.7220641015
 C         -0.8319595735       -3.5131825912        0.8009797800
 C         -0.6145103514       -4.4464473998       -0.3480903847
 C          0.2254894000       -4.5743087759        0.8847167515
 H          0.0649602556       -5.4161422728        1.5412123521
 H          1.2548795167       -4.2516434841        0.8253122003
 H         -0.1501332820       -4.0610569325       -1.2417943841
 H         -1.3761499615       -5.1870111198       -0.5383491835
 H         -1.7298631126       -3.6774017191        1.3873940056
 O         -3.0543061382       -2.3347825320       -0.5502930668
