  62
        -98.94383243
 C         -1.5060902044       -1.5769080161       -0.1624931757
 C         -1.3889284717       -0.2694274335        0.3728258786
 C         -2.6532798301        0.3627431812        0.7805705785
 C         -3.8062565412       -0.3245649938        0.7078376483
 C         -5.1649516487        0.1743650490        1.1194166124
 C         -5.8826105309        0.9970533710        0.0407168533
 C         -5.3110515292        2.3953833940       -0.1962948714
 H         -6.0323311970        2.9357200474       -0.8127021629
 H         -5.2375983533        2.9220093179        0.7556687736
 C         -3.9482404639        2.4095119647       -0.9026468764
 H         -3.7735282233        1.4399098246       -1.3747901123
 H         -3.9607782715        3.1547254081       -1.7012589382
 C         -2.7642063118        2.7388927024        0.0067321034
 H         -2.8629467455        3.7620583262        0.3756276385
 H         -1.8503829118        2.6775229308       -0.5886185813
 C         -2.6053223203        1.7982937716        1.2083087884
 H         -1.6241714400        1.9746634845        1.6557208291
 H         -3.3755765226        2.0014128310        1.9518659498
 H         -5.8692087333        0.4338444661       -0.8954749549
 H         -6.9253900796        1.1006799638        0.3497832967
 H         -5.7681514094       -0.7101091993        1.3358075446
 H         -5.0770378836        0.7660769810        2.0310421814
 O         -3.8639298522       -1.6082661274        0.2607161329
 C         -2.7279224618       -2.2533372692       -0.2011835148
 O         -2.9306040499       -3.4180331488       -0.6007547506
 H          2.1593489658       -1.0862621413       -0.9552671992
 C          2.0158603074       -1.5312780641        0.0143465896
 C          0.8413694081       -2.2003236403        0.3173801595
 C          0.6949734381       -2.7544622049        1.5866513883
 C          1.6964713855       -2.6333709230        2.5298631750
 C          2.8629319720       -1.9521670211        2.2291376796
 C          3.0189205075       -1.3980779275        0.9643570276
 N          4.1963196335       -0.7168443209        0.6295212779
 S          4.2088609400        0.5290917467       -0.4767106466
 O          4.0648076798        0.0088058794       -1.8143714877
 O          5.4580661971        1.2140188553       -0.2099123181
 C          2.8565129913        1.6226639049       -0.0846503354
 C          2.6539252219        1.9961936786        1.2276403658
 C          1.6481744449        2.9021794131        1.5171930271
 C          0.8722057992        3.4243466466        0.4954825725
 C          1.0891460577        3.0395766230       -0.8169732929
 C          2.0889637177        2.1283670248       -1.1117233878
 H          2.2830392283        1.7946299790       -2.1187474560
 H          0.4804651483        3.4410412190       -1.6125394652
 H          0.0882985867        4.1296760674        0.7238274049
 H          1.4686497389        3.1949499449        2.5395718966
 H          3.2728592321        1.5792361790        2.0057074790
 H          4.8372230862       -0.5553367186        1.3916082850
 H          3.6450942796       -1.8496163413        2.9658668819
 H          1.5672809614       -3.0664275213        3.5104239752
 H         -0.2232273435       -3.2746379482        1.8252978873
 C         -0.2930668931       -2.3399832351       -0.6662769344
 H         -0.6031934463       -3.3980983198       -0.6775206062
 C          0.1086394763       -1.9887658485       -2.0909456409
 C         -0.9196482558       -1.5949559364       -3.1077176253
 C          0.0711903914       -0.5857887120       -2.6144216032
 H          0.8624660526       -0.2732450006       -3.2809454203
 H         -0.2674742361        0.1894566749       -1.9455598452
 H         -1.9442084202       -1.5133504782       -2.7742011347
 H         -0.8176422869       -1.9718916564       -4.1143081284
 H          0.9207330741       -2.6158372781       -2.4478559660
 O         -0.3034532351        0.3469096098        0.5123950021
