  62
        -98.93904173
 C          1.9857136066        0.9180236559        0.0625464969
 C          2.2946996160       -0.0700344589        1.0219585877
 C          2.4403835305       -1.4532005074        0.5320442417
 C          2.2462902950       -1.6975277003       -0.7774438381
 C          2.3820065883       -3.0122666139       -1.4973136505
 C          3.8508924635       -3.4060637335       -1.7382983852
 C          4.7976783096       -3.1225757796       -0.5738844922
 H          5.8178798531       -3.2987886975       -0.9246807463
 H          4.7258789385       -2.0673939928       -0.3035316632
 C          4.5784690402       -3.9811595322        0.6693622183
 H          5.3341454064       -3.6919513633        1.4039951047
 H          4.7468578438       -5.0296358981        0.4129931086
 C          3.2029989306       -3.8650993363        1.3267783609
 H          3.2562366828       -4.3832569527        2.2889711068
 H          2.4487652074       -4.3816180267        0.7392153501
 C          2.7514080596       -2.4393861951        1.6322833263
 H          1.8450754869       -2.4872280483        2.2499961102
 H          3.5056889409       -1.9524021491        2.2609921150
 H          3.8878547215       -4.4667128951       -1.9912592398
 H          4.2104386616       -2.8395500780       -2.6004493122
 H          1.8503544738       -3.7855894952       -0.9502179804
 H          1.8877414356       -2.8926684708       -2.4639191038
 O          1.9397955326       -0.7126112352       -1.6687255717
 C          1.7801583819        0.6030236606       -1.2799186351
 O          1.4793057578        1.3843338187       -2.2037108348
 O          2.4531237863        0.1902232279        2.2477248788
 C          1.7814758714        2.3523762124        0.5131958617
 C          0.3761024731        2.7892999173        0.1791074086
 C          0.0674342189        4.0271798162       -0.3695033265
 C         -1.2427254044        4.3451336227       -0.6842134925
 C         -2.2642506292        3.4389301205       -0.4706805001
 C         -1.9678058717        2.2047637480        0.0983224685
 C         -0.6604126487        1.9001849486        0.4351108469
 H         -0.4422786729        0.9366537341        0.8742093210
 N         -2.9833499168        1.2662883054        0.3569772158
 S         -2.6079355507       -0.3744004574        0.2153982792
 O         -1.9894297394       -0.8160316533        1.4416364618
 O         -1.8729834017       -0.6265672559       -1.0038560408
 C         -4.2530468247       -1.0549921435        0.1029736443
 C         -4.7615129362       -1.4102546639       -1.1318268580
 C         -6.0553559735       -1.9023933605       -1.2077516290
 C         -6.8155535283       -2.0260159182       -0.0545891082
 C         -6.2912321480       -1.6657307515        1.1781116979
 C         -4.9979992814       -1.1748498114        1.2612671585
 H         -4.5436998698       -0.8903216197        2.1959312959
 H         -6.8841913549       -1.7654210060        2.0728262837
 H         -7.8221294770       -2.4082061878       -0.1167781976
 H         -6.4637968187       -2.1861582099       -2.1642426811
 H         -4.1300352862       -1.3012998489       -1.9992030443
 H         -3.8462972187        1.4863545915       -0.1224169484
 H         -3.2813606831        3.6799144131       -0.7397747527
 H         -1.4682653073        5.3071670160       -1.1187996517
 H          0.8540043444        4.7376252127       -0.5642880691
 H          1.8868291039        2.3340816294        1.6088589113
 C          2.8512242208        3.2533928098       -0.0674045474
 C          3.3017060867        4.4732766466        0.6779214969
 C          4.2024142608        3.2800802956        0.5798965941
 H          5.0755910146        3.3396556446       -0.0521908639
 H          4.3402612648        2.6668103599        1.4585663421
 H          3.5609286101        5.3557946160        0.1128278754
 H          2.8351843407        4.6773615639        1.6297438288
 H          2.8131268235        3.2948135137       -1.1503241730
