  62
        -98.94067196
 C         -1.9504364875       -0.8500768752        0.7159496860
 C         -1.8692661280       -0.1861856404       -0.5337929733
 C         -2.0914761311        1.2652729013       -0.5006450989
 C         -2.2699245221        1.8924974952        0.6744285251
 C         -2.4706339134        3.3709113480        0.8712606571
 C         -3.9196221904        3.8384101417        0.6749117533
 C         -4.4099309497        3.8511955360       -0.7735538855
 H         -5.3527739523        4.4013790023       -0.7869086991
 H         -3.7003003691        4.4037487654       -1.3899449967
 C         -4.6424840784        2.4587364588       -1.3762766114
 H         -4.7019064410        1.7200380563       -0.5736539522
 H         -5.6017854492        2.4429597303       -1.8981363125
 C         -3.5748455776        2.0152205910       -2.3765567204
 H         -3.5920681240        2.6737328408       -3.2476469680
 H         -3.8185390879        1.0044391245       -2.7132382907
 C         -2.1495805580        1.9945283675       -1.8084690894
 H         -1.5012414220        1.4620787475       -2.5088080402
 H         -1.7726872292        3.0106006226       -1.6921102789
 H         -4.5744425974        3.2036930820        1.2764204801
 H         -3.9886021285        4.8549953160        1.0687905015
 H         -2.1725659200        3.5890141485        1.8992928865
 H         -1.8118745227        3.9193946050        0.1970093953
 O         -2.2677818643        1.2299010355        1.8632347444
 C         -2.1110151718       -0.1458223034        1.9104101190
 O         -2.1294676572       -0.6202838963        3.0658665299
 H          0.6567463953       -1.2072503422        1.0943559770
 C          0.6818296165       -1.9714122987        0.3290118463
 C         -0.4692334200       -2.6990918880        0.0513968214
 C         -0.4156248241       -3.6796398253       -0.9292944115
 C          0.7575274145       -3.8988632934       -1.6311807845
 C          1.8868992263       -3.1415786004       -1.3834794025
 C          1.8456123493       -2.1656545854       -0.3930120836
 N          2.9778549512       -1.3843053258       -0.0984953888
 S          2.7369105067        0.2102716002        0.4027008239
 O          2.4680922788        0.2130523147        1.8205030777
 O          1.7640332506        0.8710457789       -0.4376310832
 C          4.3648869959        0.8766274717        0.1051389357
 C          4.6162200858        1.5465269219       -1.0773639872
 C          5.8933792145        2.0294368004       -1.3163068467
 C          6.8929057959        1.8322321753       -0.3754183136
 C          6.6253803411        1.1588646896        0.8073478275
 C          5.3503697513        0.6742851281        1.0527818944
 H          5.0914463371        0.1531793926        1.9596889085
 H          7.4038745043        1.0101313764        1.5380178733
 H          7.8858268702        2.2087026378       -0.5638197129
 H          6.1027707145        2.5564139956       -2.2331955461
 H          3.8047828500        1.6827737573       -1.7744305853
 H          3.6881779819       -1.4411133560       -0.8159611105
 H          2.7912894236       -3.2964420858       -1.9520546501
 H          0.7851300612       -4.6573604033       -2.3988955272
 H         -1.2981539070       -4.2504022897       -1.1670644541
 C         -1.7079600335       -2.3459821247        0.8382381444
 H         -1.4819544719       -2.5077720471        1.9061499234
 C         -2.9129519858       -3.2150782609        0.5126302505
 C         -4.3067168671       -2.6814722648        0.6540932295
 C         -3.7577991521       -2.9920870240       -0.7041997526
 H         -4.1432620488       -3.8570413690       -1.2240801492
 H         -3.4878632990       -2.1744852561       -1.3528479835
 H         -4.4160800199       -1.6446428147        0.9386366652
 H         -5.0647116536       -3.3298927014        1.0673475455
 H         -2.7625936662       -4.2454224281        0.8202986234
 O         -1.6328930127       -0.7623231537       -1.6268124655
