  62
        -98.94311936
 C          1.8821599551        1.1433872296        0.3407691191
 C          2.4407346142        0.1332988320        1.1665297976
 C          3.8527183634       -0.1949798431        0.9333404367
 C          4.5336830747        0.4751614117       -0.0137611924
 C          5.9613420280        0.2124174528       -0.3942687485
 C          6.0531432950       -0.8138762860       -1.5320106601
 C          5.2218114459       -2.0747075323       -1.2948478610
 H          4.1617057082       -1.8100036778       -1.2970805591
 H          5.3879162717       -2.7389756221       -2.1457267403
 C          5.5542609199       -2.8186651043        0.0061505566
 H          6.5303087261       -2.5018879432        0.3754972574
 H          5.6200660545       -3.8873696871       -0.2085765624
 C          4.5149431160       -2.6519483532        1.1165560348
 H          3.5195797014       -2.8794775141        0.7255431266
 H          4.7326355565       -3.3842380553        1.8988336261
 C          4.4661147179       -1.2714642316        1.7836415073
 H          3.8293860546       -1.3534402104        2.6695708899
 H          5.4686258733       -0.9834660219        2.1069839268
 H          7.1011982121       -1.0873207275       -1.6665072351
 H          5.7033037335       -0.3421761098       -2.4530479780
 H          6.4065460648        1.1514762704       -0.7270879611
 H          6.5037357541       -0.1466965822        0.4781689829
 O          3.9743852500        1.4505308630       -0.7699648276
 C          2.6390760768        1.8040207439       -0.6277683535
 O          2.2805089870        2.7071990249       -1.4062550577
 H         -1.0286640996       -0.7900239359        0.7071774754
 C         -1.1047713422       -0.3288545977       -0.2666882349
 C         -0.4251158106        0.8528923827       -0.5314973599
 C         -0.5198622244        1.4070902540       -1.8043642311
 C         -1.2738804724        0.7863817716       -2.7830723400
 C         -1.9629443930       -0.3824522975       -2.5106126339
 C         -1.8736729935       -0.9459944799       -1.2439447309
 N         -2.5643515588       -2.1330106054       -0.9345453912
 S         -3.5527938300       -2.1389135606        0.4175845859
 O         -2.7584578958       -2.1536545829        1.6182158005
 O         -4.4377043077       -3.2658582056        0.2201511842
 C         -4.4654040074       -0.6122569884        0.2891432639
 C         -5.5505901014       -0.5681932889       -0.5644286650
 C         -6.2205110923        0.6319610675       -0.7362952022
 C         -5.7890523497        1.7646390207       -0.0626963513
 C         -4.6990415972        1.7039387027        0.7914905066
 C         -4.0276719616        0.5047704210        0.9710312010
 H         -3.1789462337        0.4134942155        1.6294982267
 H         -4.3660216908        2.5858357317        1.3152137676
 H         -6.3059423260        2.7009910481       -0.2011942663
 H         -7.0720801332        0.6818945504       -1.3955174333
 H         -5.8580702529       -1.4738929012       -1.0617573702
 H         -3.0539490108       -2.5348177065       -1.7217912212
 H         -2.5564648709       -0.8621790903       -3.2742099351
 H         -1.3318270791        1.2222685590       -3.7688187657
 H          0.0290662302        2.3070109625       -2.0299154561
 C          0.4146324272        1.4793935102        0.5561369571
 H          0.1501474438        0.9877147668        1.5025663966
 C          0.1599826326        2.9658382948        0.7011654534
 C         -1.0883325945        3.4232498160        1.3915283221
 C          0.2421034169        3.5889031403        2.0610608009
 H          0.6596864766        4.5807359277        2.1479665741
 H          0.4794951309        2.9424241459        2.8938204651
 H         -1.7506019694        2.6611773198        1.7734380540
 H         -1.5902675046        4.3028429063        1.0195522687
 H          0.5236029940        3.5534295361       -0.1309774816
 O          1.7882437453       -0.4614866535        2.0669503886
