  62
        -98.94453008
 C         -1.5308227785       -1.5013772850        0.2014767202
 C         -1.7470460802       -0.4562148037        1.1380314222
 C         -2.9847865734        0.3192491686        0.9846481004
 C         -3.8130723418        0.0310331942       -0.0362005525
 C         -5.0963084016        0.7510974766       -0.3322005301
 C         -4.8702125466        1.9380598334       -1.2785323263
 C         -3.7294758212        2.8580726220       -0.8455051225
 H         -2.7898921885        2.3057414726       -0.9113269519
 H         -3.6753921743        3.6748282781       -1.5680104136
 C         -3.8837258965        3.4346887283        0.5687241086
 H         -4.9199384627        3.3396560058        0.8954654374
 H         -3.6498099795        4.5009840293        0.5412106671
 C         -2.9647033409        2.8072279781        1.6187275282
 H         -3.0231658812        3.4155175182        2.5255409490
 H         -1.9288644397        2.8445298554        1.2740067375
 C         -3.2896458819        1.3637326597        2.0227654930
 H         -2.6657185190        1.1162572425        2.8870597532
 H         -4.3365644468        1.2976462057        2.3283366337
 H         -4.6399983157        1.5492671690       -2.2730218905
 H         -5.7980085505        2.5092742291       -1.3431047364
 H         -5.7825331868        0.0461537173       -0.8044205946
 H         -5.5337770881        1.0970944196        0.6025989357
 O         -3.5479492666       -0.9370983751       -0.9459307491
 C         -2.4170653956       -1.7368737877       -0.8509798457
 O         -2.3406902143       -2.5914238846       -1.7537392716
 O         -0.9454496499       -0.1970817931        2.0768053385
 C         -0.3050813039       -2.3726500443        0.4229188273
 C          0.8428641634       -1.9751348330       -0.4734115426
 C          0.7949999309       -2.1547523492       -1.8523015866
 C          1.8702898554       -1.7900289263       -2.6412519372
 C          3.0015884464       -1.2236128328       -2.0788918731
 C          3.0554987571       -1.0320173443       -0.7043825568
 C          1.9840692633       -1.4211175488        0.0881810304
 H          2.0451798302       -1.2699763595        1.1555913498
 N          4.1803278092       -0.4444147789       -0.0959520620
 S          3.9159659485        0.8452561065        0.9447627083
 O          5.1959196396        1.5144728824        1.0273980418
 O          3.3686690700        0.3714197891        2.1884118797
 C          2.7514215777        1.8616473026        0.0565873184
 C          3.2587502130        2.7249885090       -0.8961502490
 C          2.3821996560        3.4508386225       -1.6848049695
 C          1.0148313743        3.2844776933       -1.5241476356
 C          0.5242249666        2.4124730028       -0.5659999316
 C          1.3936858752        1.6953878018        0.2409887423
 H          1.0239720932        1.0246571402        1.0010106126
 H         -0.5383957949        2.2730149669       -0.4405010925
 H          0.3266741883        3.8363394406       -2.1447882310
 H          2.7638268517        4.1349024148       -2.4254141376
 H          4.3285933697        2.8214239386       -0.9885139013
 H          4.9243126283       -0.2219957608       -0.7426819520
 H          3.8364247834       -0.9327802474       -2.6982037768
 H          1.8236082964       -1.9392710581       -3.7092832153
 H         -0.0961291316       -2.5698581100       -2.2968955678
 H          0.0041865006       -2.1678283546        1.4575551550
 C         -0.5969116522       -3.8559871221        0.3009894241
 C          0.3310466741       -4.8307308764        0.9589252229
 C         -1.0458595345       -4.6161081938        1.5108692684
 H         -1.7816245034       -5.3962198820        1.3853600587
 H         -1.1440557611       -4.0696209841        2.4379231853
 H          0.5436317533       -5.7606418771        0.4544528643
 H          1.1671738086       -4.4293806539        1.5122372993
 H         -1.0310889686       -4.1358778806       -0.6495371881
