  62
        -98.93702965
 C         -1.9470347639       -1.5458710286        0.0260902439
 C         -1.6888176067       -0.2122677847       -0.3652606956
 C         -2.8651182636        0.6528802899       -0.5810546401
 C         -4.1000066634        0.1603937764       -0.3758211398
 C         -5.4668871740        0.7900736904       -0.5451887779
 C         -5.6161354685        2.3011367200       -0.7036772081
 C         -5.2455560960        3.1165079551        0.5352955281
 H         -5.2864748669        4.1754558036        0.2710688439
 H         -5.9999414744        2.9372673971        1.3056496505
 C         -3.8817414671        2.8090745418        1.1491705927
 H         -3.8641599976        1.7762872524        1.5034538585
 H         -3.7587132100        3.4508390669        2.0258509077
 C         -2.6812942382        3.0397022571        0.2334034899
 H         -1.7796164793        2.9201774924        0.8404863581
 H         -2.6996388063        4.0632993067       -0.1458764250
 C         -2.5672707800        2.0752601274       -0.9592735545
 H         -3.1944562472        2.3936020276       -1.7882808002
 H         -1.5306270339        2.0882725243       -1.3089041362
 H         -5.0576624066        2.6454853471       -1.5691391645
 H         -6.6724755532        2.4875834185       -0.9160705445
 H         -5.9110846204        0.3049441905       -1.4215980822
 H         -6.0543434034        0.4607917080        0.3178861861
 O         -4.2994913770       -1.1321900751        0.0191945498
 C         -3.2479485352       -2.0023900596        0.2435575290
 O         -3.5952071850       -3.1335248933        0.6372516754
 O         -0.5341154468        0.2548751695       -0.5352879400
 C         -0.8217498524       -2.5295873803        0.2946618889
 C          0.2653445514       -1.8647166807        1.1044265425
 C         -0.0565954306       -1.3737412559        2.3679662459
 C          0.8984457910       -0.7587961369        3.1529200094
 C          2.1975781948       -0.6223966613        2.6953120862
 C          2.5318216512       -1.1125250993        1.4388917764
 C          1.5692731174       -1.7346126820        0.6532312236
 H          1.8512527892       -2.0808271862       -0.3265894794
 N          3.8557315916       -1.0236023895        0.9726051911
 S          4.2341830507       -0.3795659018       -0.5241123029
 O          3.5353040800       -1.0919301155       -1.5611199310
 O          5.6798288113       -0.4295497660       -0.5797922952
 C          3.7145874453        1.3260584958       -0.4485049332
 C          2.3688745333        1.6307333442       -0.4895135182
 C          1.9870399097        2.9595549560       -0.3799262311
 C          2.9434006974        3.9518481870       -0.2333455638
 C          4.2910290384        3.6265541330       -0.1936539950
 C          4.6816899203        2.3017378804       -0.2970637366
 H          5.7169190994        2.0016502825       -0.2726519976
 H          5.0351462628        4.3986113022       -0.0807030894
 H          2.6361795675        4.9825895843       -0.1502167591
 H          0.9364005946        3.2021334648       -0.4083559406
 H          1.6323690393        0.8513723618       -0.6023565296
 H          4.5040487344       -0.6635930610        1.6588931587
 H          2.9471289508       -0.1426170524        3.3065666113
 H          0.6310144990       -0.3794552654        4.1277654820
 H         -1.0738987461       -1.4767947865        2.7222339235
 H         -1.2740873109       -3.3147982225        0.9237915236
 C         -0.2950043654       -3.2238507833       -0.9521758485
 C         -1.1818015305       -3.4822057555       -2.1326930607
 C         -0.0616828996       -2.4934285765       -2.2386768578
 H          0.8097281379       -2.7509158441       -2.8234186298
 H         -0.3024503548       -1.4428310028       -2.2680476539
 H         -1.0882473702       -4.4271982521       -2.6463995106
 H         -2.1942486036       -3.1067893630       -2.0908599969
 H          0.4130470206       -4.0103457855       -0.7073014012
