  62
        -98.94848352
 C          0.8268546009        1.2269966988        0.5687302223
 C          1.1996888616        0.5436189215       -0.6134185250
 C          2.1409913594       -0.5682870672       -0.4286830903
 C          2.4725540857       -0.9619678844        0.8137251430
 C          3.4153906488       -2.0806809886        1.1655640254
 C          4.8903687997       -1.6554535327        1.1887910249
 C          5.5118170932       -1.4056857413       -0.1861717288
 H          6.5910256745       -1.3287871211       -0.0396024237
 H          5.3312749936       -2.2692039048       -0.8269056844
 C          5.0165791925       -0.1311179807       -0.8842686521
 H          4.5388835573        0.5236581563       -0.1515983038
 H          5.8707770450        0.4153739423       -1.2905351494
 C          4.0443187272       -0.3749710181       -2.0389784530
 H          4.5552826596       -0.9168244997       -2.8377047173
 H          3.7354082724        0.5958305005       -2.4344005227
 C          2.7798830984       -1.1544161221       -1.6507301693
 H          2.0610286319       -1.0736089955       -2.4686972754
 H          3.0225287431       -2.2039512387       -1.4918441797
 H          4.9855421496       -0.7563830472        1.8022950978
 H          5.4532326342       -2.4527716119        1.6798257499
 H          3.1378926330       -2.4219783950        2.1653170506
 H          3.2911872861       -2.9067860518        0.4654927775
 O          1.9639352715       -0.3726427084        1.9306442398
 C          1.1882079163        0.7722569039        1.8358701740
 O          0.8816933450        1.2797303732        2.9352639334
 H         -1.7030041352        0.5680262018        1.0878123052
 C         -2.0782710608        1.1745761355        0.2755595958
 C         -1.3170143430        2.2397250427       -0.1902454061
 C         -1.8263744494        3.0241082620       -1.2170389681
 C         -3.0626833003        2.7369317626       -1.7687967650
 C         -3.8142081688        1.6716056277       -1.3094412296
 C         -3.3174758064        0.8877760003       -0.2732007815
 N         -4.0681885144       -0.1826358126        0.2327240230
 S         -3.3356669223       -1.5127571041        0.9076657048
 O         -4.3655692236       -2.5315921581        0.8801873216
 O         -2.8110023073       -1.1989820698        2.2137694858
 C         -2.0174569836       -2.0118138440       -0.1856881512
 C         -2.1844243271       -1.9249888004       -1.5531541073
 C         -1.1937563270       -2.4249820645       -2.3821698600
 C         -0.0685565790       -3.0195982222       -1.8349768547
 C          0.0867165589       -3.0953956872       -0.4603482318
 C         -0.8926087964       -2.5818654266        0.3734113522
 H         -0.8043476525       -2.6089749877        1.4486285769
 H          0.9608965124       -3.5564417785       -0.0305228776
 H          0.6919437616       -3.4256042100       -2.4826361923
 H         -1.3056068470       -2.3537675842       -3.4519105453
 H         -3.0734218971       -1.4716242026       -1.9599127872
 H         -4.9043822693       -0.4167963825       -0.2808815641
 H         -4.7786730151        1.4486485276       -1.7391500612
 H         -3.4452385876        3.3503566709       -2.5701028821
 H         -1.2553727263        3.8588564066       -1.5879360868
 C          0.0094038876        2.5022466777        0.4779254311
 H         -0.1942911646        2.8060716702        1.5157705921
 C          0.8271536709        3.5848181057       -0.1972448084
 C          0.6014296202        5.0266440200        0.1414311995
 C          1.8433225968        4.3319076561        0.6111751344
 H          2.7855475950        4.5867686771        0.1495812921
 H          1.9255996909        4.0789090623        1.6587383817
 H          0.6945302577        5.7626748787       -0.6428103192
 H         -0.1575746200        5.2552114721        0.8743426437
 H          1.0903355166        3.3320075912       -1.2179034167
 O          0.7911456520        0.8567889209       -1.7603199610
