  62
        -98.93955745
 C          2.1270382994        1.0191302394        0.0199306803
 C          2.8603400328        0.3494353768        1.0247795698
 C          3.5972323008       -0.8584809888        0.6134826785
 C          3.5189593544       -1.2750688745       -0.6644112278
 C          4.1160405600       -2.4824733605       -1.3574395111
 C          5.2238247299       -3.2972820565       -0.6946089547
 C          6.5564357915       -2.5634747811       -0.5470653007
 H          7.2346863025       -3.1998622535        0.0253679357
 H          6.9883811503       -2.4263282789       -1.5415102616
 C          6.4835749523       -1.1905300983        0.1163852955
 H          7.4969352628       -0.7815366531        0.1496423058
 H          5.8850039742       -0.5166757889       -0.4999668250
 C          5.9326551487       -1.1811879351        1.5407938211
 H          6.0841805206       -0.1769553519        1.9454524474
 H          6.4992740481       -1.8798520169        2.1592536316
 C          4.4360319017       -1.5118489225        1.6742615501
 H          4.0859589617       -1.1117879100        2.6305143550
 H          4.2674480764       -2.5861352188        1.6898819099
 H          5.3950557141       -4.1663908828       -1.3356324966
 H          4.8883275009       -3.6776814033        0.2657511587
 H          3.2720039163       -3.1495466460       -1.5669486122
 H          4.4693264256       -2.1221485848       -2.3288983110
 O          2.7661931924       -0.6136325273       -1.5927869587
 C          2.0598436660        0.5383216391       -1.2864654418
 O          1.4309158682        1.0247954649       -2.2444065410
 O          2.8892376216        0.7351159655        2.2254841470
 C          1.3483951516        2.2714172709        0.3812860139
 C         -0.1235165127        2.0362217286        0.1457001277
 C         -0.9333769304        2.8894212175       -0.5910163064
 C         -2.2706347085        2.5889127232       -0.7876352774
 C         -2.8295746456        1.4442640884       -0.2506092565
 C         -2.0299365860        0.5871864866        0.4947110183
 C         -0.6926205904        0.8910746533        0.6906528871
 H         -0.0688676613        0.2183525187        1.2674997208
 N         -2.5915127905       -0.5751396066        1.0570432786
 S         -3.4012416127       -1.6214446506        0.0194987156
 O         -3.3267108527       -2.9174138961        0.6597805432
 O         -2.8874140472       -1.5402483461       -1.3284356563
 C         -5.0854337142       -1.0457768085        0.0722181021
 C         -5.7328867746       -0.7037601368       -1.0987282317
 C         -7.0460600720       -0.2638160080       -1.0340425383
 C         -7.6845773061       -0.1754884697        0.1934832066
 C         -7.0206660369       -0.5251871230        1.3600887246
 C         -5.7084912530       -0.9666759860        1.3024808232
 H         -5.1576782002       -1.2511026452        2.1833791893
 H         -7.5204752185       -0.4548363202        2.3126924188
 H         -8.7056711407        0.1685060877        0.2412059936
 H         -7.5634039802        0.0081657464       -1.9400595047
 H         -5.1928593730       -0.7828487231       -2.0289459748
 H         -1.9417528879       -1.0933842180        1.6315315991
 H         -3.8685341916        1.2045587005       -0.4075410697
 H         -2.8863925064        3.2567117641       -1.3704879162
 H         -0.5159010345        3.7836795018       -1.0231853946
 H          1.5036621584        2.4101842125        1.4616377862
 C          1.9016344917        3.4756052026       -0.3499489618
 C          1.7575892655        4.8459670207        0.2396012186
 C          3.0985514774        4.1780926911        0.2150257903
 H          3.8491164734        4.5472699824       -0.4676395270
 H          3.5018386809        3.8014570941        1.1437754138
 H          1.5892791571        5.6786677636       -0.4263245336
 H          1.2512300388        4.9299338018        1.1891234066
 H          1.8463990311        3.3696557346       -1.4275633761
