  62
        -98.94643201
 C          1.5576171285        1.0965525653        0.0345552110
 C          2.6126129091        0.8142951943        0.9394940744
 C          3.3305631111       -0.4482727209        0.7236631467
 C          2.9306006237       -1.2703606173       -0.2632923567
 C          3.5908221058       -2.5708546020       -0.6164819138
 C          4.6767499500       -2.3699590025       -1.6828753125
 C          5.6500925189       -1.2342329523       -1.3672959532
 H          6.3881776539       -1.2057046757       -2.1718642239
 H          5.1111037425       -0.2843532651       -1.3929740684
 C          6.3698856924       -1.3710197914       -0.0183254226
 H          7.4284030144       -1.1441401953       -0.1621762553
 H          6.3052437943       -2.4012627984        0.3335931121
 C          5.8572000820       -0.4293339188        1.0730729124
 H          5.8341982850        0.5947229356        0.6916839976
 H          6.5684037097       -0.4525648903        1.9030343706
 C          4.4740453412       -0.7625907038        1.6465249081
 H          4.4463746011       -1.8099083647        1.9536787583
 H          4.3231849845       -0.1404901009        2.5335246809
 H          5.2294045905       -3.3046998822       -1.7934799319
 H          4.1905625105       -2.1484246999       -2.6358535362
 H          4.0250392023       -3.0073646640        0.2807181358
 H          2.8324547486       -3.2500338230       -1.0096107869
 O          1.8951754688       -0.9819320520       -1.0905303782
 C          1.1944872569        0.2116424070       -0.9805160556
 O          0.2965450642        0.3462830059       -1.8332740086
 O          2.9369222409        1.5836383445        1.8822836692
 C          0.7685067991        2.3806408197        0.2384729943
 C         -0.6136812256        1.9811324748        0.6896025501
 C         -0.8310261467        1.6584022206        2.0265495810
 C         -2.0577767237        1.1810175090        2.4486218050
 C         -3.0856022611        0.9869915491        1.5415997703
 C         -2.8718225727        1.2934876435        0.2046710821
 C         -1.6539041961        1.8138841621       -0.2107782831
 H         -1.5054107374        2.0414783375       -1.2539882140
 N         -3.8864029169        1.0351430934       -0.7357179746
 S         -4.6141342686       -0.4700048723       -0.6404554432
 O         -4.9948828908       -0.8021225963       -1.9960925392
 O         -5.6988932243       -0.4125928348        0.3096666183
 C         -3.3680737652       -1.6029770925       -0.0416889935
 C         -3.6653905571       -2.4138569014        1.0355434208
 C         -2.7034153972       -3.2954403181        1.5009331879
 C         -1.4616360661       -3.3486200572        0.8868351744
 C         -1.1799332439       -2.5300072364       -0.1954124357
 C         -2.1392983087       -1.6497300469       -0.6694040504
 H         -1.9167373820       -0.9999399761       -1.5012125865
 H         -0.2131618367       -2.5550862129       -0.6737498699
 H         -0.7079974757       -4.0285209306        1.2521678517
 H         -2.9219074624       -3.9333887759        2.3421290294
 H         -4.6396820393       -2.3322479395        1.4896527228
 H         -3.6050240444        1.2306883063       -1.6860272265
 H         -4.0429512106        0.5953949284        1.8458897147
 H         -2.2133916782        0.9431759298        3.4897169442
 H         -0.0172215183        1.7719617601        2.7288217728
 H          1.2667749350        2.9021252111        1.0661425649
 C          0.7881965875        3.2731554136       -0.9839826028
 C          0.3384208356        4.6971571628       -0.8568417127
 C          1.7892879029        4.3848993406       -1.0633386883
 H          2.2345944599        4.6092702459       -2.0211302480
 H          2.4634608527        4.5116566398       -0.2289984408
 H         -0.2141973235        5.1398083806       -1.6714717226
 H          0.0258041362        5.0338074710        0.1200238498
 H          0.5613318835        2.7505511083       -1.9052515152
