  62
        -98.93971485
 C         -2.5125660805       -1.2103528707       -0.1158350394
 C         -2.4713112707       -0.0029585313       -0.8543672804
 C         -3.7575393909        0.6910606183       -1.0162130409
 C         -4.8703562008        0.1536175186       -0.4846642004
 C         -6.2265493509        0.7957038883       -0.5062861709
 C         -6.4435492010        1.6675041393        0.7390793683
 C         -5.2912540612        2.6289132398        1.0315620475
 H         -5.5683424512        3.2081562805        1.9150383070
 H         -4.4010060010        2.0517200801        1.2924699679
 C         -4.9531369814        3.5851397088       -0.1206971433
 H         -5.7873638214        3.6300620281       -0.8216907234
 H         -4.8162558415        4.5892320892        0.2861138058
 C         -3.6725478113        3.2345632684       -0.8805765731
 H         -3.4144974415        4.0810310379       -1.5225687838
 H         -2.8501509613        3.0976088392       -0.1734770530
 C         -3.7487536011        1.9893205377       -1.7728343920
 H         -2.8465979612        1.9683531973       -2.3913691921
 H         -4.6165752712        2.0590756970       -2.4315914121
 H         -7.3671416411        2.2338660790        0.6068681579
 H         -6.5678249208        1.0107639100        1.6031702589
 H         -6.9812809507        0.0078829481       -0.5237632002
 H         -6.3232283910        1.3989968775       -1.4066580614
 O         -4.8740446205       -1.0236044409        0.1921500706
 C         -3.6989192104       -1.7232065705        0.4092844811
 O         -3.8385850802       -2.7697275699        1.0744745520
 O         -1.4198086609        0.4790566285       -1.3508378709
 C         -1.2311017503       -1.9780541202        0.1623619312
 C         -0.3050847305       -1.0926667594        0.9610414004
 C         -0.7331529305       -0.6507675484        2.2113359601
 C          0.0565830794        0.1881197824        2.9722414193
 C          1.2900373293        0.6042975122        2.5021412589
 C          1.7231739193        0.1753723812        1.2531317593
 C          0.9313543094       -0.6779130995        0.4953795700
 H          1.2923633695       -0.9968606703       -0.4674834497
 N          2.9484822492        0.6264857310        0.7387201488
 S          3.8603159793       -0.3640018997       -0.2740971503
 O          3.3003430893       -0.3434653309       -1.6011793603
 O          4.0302744496       -1.6684701491        0.3276947908
 C          5.4006588992        0.5343528206       -0.2603573012
 C          5.4942658389        1.6799955100       -1.0282720121
 C          6.6713528488        2.4104488203       -1.0011674228
 C          7.7295213389        1.9857124911       -0.2110147925
 C          7.6217521692        0.8328664817        0.5519517185
 C          6.4462032593        0.0983178615        0.5308578592
 H          6.3188595095       -0.8068149080        1.1025531399
 H          8.4473523392        0.5041382824        1.1622975887
 H          8.6446693888        2.5561692213       -0.1919671430
 H          6.7592095886        3.3060494898       -1.5948739336
 H          4.6484353689        1.9655734993       -1.6320297524
 H          3.5274067091        1.0738151617        1.4361048584
 H          1.9067629192        1.2648953228        3.0925403683
 H         -0.2879709607        0.5201857032        3.9401990291
 H         -1.7000614204       -0.9753430183        2.5730963504
 H         -1.5178658702       -2.8311945397        0.7942855820
 C         -0.6228255003       -2.5056718012       -1.1185107084
 C          0.3251263199       -3.6646562410       -1.0684519474
 C         -1.0504197401       -3.8447801817       -1.6354978072
 H         -1.1563115601       -3.9754371126       -2.7019449771
 H         -1.7759208399       -4.3938785114       -1.0528191067
 H          1.1701654799       -3.6673948014       -1.7408122274
 H          0.5377061500       -4.0934334501       -0.1004580471
 H         -0.4332140705       -1.7272049018       -1.8487336290
