  62
        -98.94058007
 C         -2.2268504809       -0.8095116298       -0.1507032593
 C         -3.4587052610       -1.3086596698        0.3361915105
 C         -4.6651409209       -0.6873200897       -0.2205703396
 C         -4.5492762507        0.2751374102       -1.1538190196
 C         -5.6865824106        0.9808920503       -1.8417157498
 C         -6.2569369207        2.1667431103       -1.0516108899
 C         -7.0835141109        1.7908077603        0.1787559500
 H         -7.5964979609        2.6963044003        0.5088030000
 H         -7.8489458308        1.0684570303       -0.1063391700
 C         -6.2590541710        1.2360334803        1.3487288502
 H         -5.2057593310        1.4868890303        1.2022012303
 H         -6.5756312211        1.7160181703        2.2775034301
 C         -6.3850442211       -0.2738036697        1.5528920802
 H         -5.7337366812       -0.5632515197        2.3815619502
 H         -7.4120431511       -0.5214626796        1.8299091400
 C         -5.9940099110       -1.1117610397        0.3283412002
 H         -6.7641897809       -1.0391105397       -0.4390584399
 H         -5.9062895210       -2.1552080197        0.6404810102
 H         -5.4307003407        2.8158731103       -0.7522088998
 H         -6.8953022906        2.7344827403       -1.7325018899
 H         -5.2909240805        1.3562647803       -2.7879358097
 H         -6.4832932006        0.2680754503       -2.0563000099
 O         -3.3452113607        0.7160457002       -1.6081785295
 C         -2.1566751507        0.2061751102       -1.1037584193
 O         -1.1316853207        0.7304797302       -1.5817660392
 O         -3.5446303411       -2.2266841298        1.1952288505
 C         -0.9340096810       -1.3962823498        0.3859006808
 C         -0.0783372810       -0.3053053298        0.9796669309
 C         -0.6541876611        0.5746563702        1.8925391509
 C          0.0835269489        1.6055032702        2.4395434909
 C          1.4082079389        1.7828700501        2.0819884011
 C          1.9998806290        0.8998292301        1.1860582512
 C          1.2608025290       -0.1500706999        0.6568792211
 H          1.7320977491       -0.8179273399       -0.0422486988
 N          3.3630200990        1.0411226701        0.8688185214
 S          4.0216950492        0.9145391600       -0.6754593986
 O          4.1667447693        2.2456817600       -1.2294479286
 O          3.3055627393       -0.0461020800       -1.4709890986
 C          5.6309813892        0.2694327400       -0.2588002884
 C          5.7054153491       -1.0373522000        0.1834115917
 C          6.9410399890       -1.5580897100        0.5316884418
 C          8.0761950890       -0.7665638501        0.4338901320
 C          7.9856441391        0.5431119299       -0.0113574781
 C          6.7515458592        1.0696946700       -0.3607648082
 H          6.6343523993        2.0806232300       -0.7162534383
 H          8.8698629392        1.1553194899       -0.0873607680
 H          9.0369880490       -1.1745736201        0.7054652621
 H          7.0148582489       -2.5764285300        0.8779818918
 H          4.7983722990       -1.6168992800        0.2402650516
 H          3.7717544590        1.8553528401        1.3087018714
 H          1.9812724689        2.5995073401        2.4953293812
 H         -0.3775864712        2.2849173202        3.1409289109
 H         -1.6948631211        0.4446005202        2.1581699607
 H         -1.2363541211       -2.0803572598        1.1933301108
 C         -0.2362436509       -2.1968873399       -0.6932657491
 C          0.6274197191       -3.3663445799       -0.3295169589
 C         -0.7041905409       -3.5912197298       -0.9787629091
 H         -0.7310430707       -3.9259434099       -2.0049515391
 H         -1.5121548209       -3.9743170098       -0.3725640392
 H          1.5184252891       -3.5440570099       -0.9128719688
 H          0.7266331889       -3.6075779499        0.7179978211
 H          0.0628790893       -1.5856177299       -1.5386232390
