  62
        -98.94134132
 C          2.2497186485        0.6769292617       -0.3227027489
 C          3.4841669641        0.9492814797        0.3183027867
 C          4.2615455739       -0.2197784151        0.7477299872
 C          3.7534490517       -1.4512670131        0.5585800942
 C          4.4557224748       -2.7307841840        0.9076056317
 C          5.2811865991       -3.2530309760       -0.2768266192
 C          6.1816337806       -2.1960209081       -0.9162969025
 H          6.7368851808       -2.6852072969       -1.7194701271
 H          5.5569707431       -1.4282267031       -1.3783868418
 C          7.1669665524       -1.5301215503        0.0542865071
 H          7.2737606226       -2.1413301579        0.9511407046
 H          8.1480771332       -1.4798260745       -0.4225282139
 C          6.7938162789       -0.1020322006        0.4563041985
 H          7.6547478708        0.3453902208        0.9599735203
 H          6.5947644603        0.4906539436       -0.4400345057
 C          5.5918736326        0.0331064946        1.3997559038
 H          5.7272125058       -0.6192398804        2.2648797823
 H          5.5600866444        1.0682191567        1.7522284147
 H          4.5935873916       -3.6246365919       -1.0400535320
 H          5.8892120133       -4.0906473838        0.0696700544
 H          5.1009108556       -2.5615550168        1.7675447126
 H          3.7022278153       -3.4749075179        1.1714889031
 O          2.5475211606       -1.6728707171       -0.0227592866
 C          1.7681794813       -0.6221337034       -0.4858815624
 O          0.6990742532       -0.9806955773       -1.0162309271
 H         -1.1398568003        0.9774848334       -1.3328957062
 C         -1.0465545206        1.3965802409       -0.3436470232
 C          0.1709042854        1.9078652260        0.0751910925
 C          0.2719376248        2.4162281109        1.3676596789
 C         -0.8193189405        2.4106647360        2.2152013206
 C         -2.0330091165        1.8932387823        1.7958039348
 C         -2.1408654327        1.3764381367        0.5124086141
 N         -3.3705813712        0.8487839165        0.0683926612
 S         -4.1791386610       -0.1952502299        1.1230260636
 O         -4.8591392551        0.5993969003        2.1160951749
 O         -3.2743027598       -1.2009456657        1.6349356550
 C         -5.3710368808       -0.9257788981        0.0183397552
 C         -5.0233413557       -2.0655926232       -0.6818156560
 C         -5.9399080222       -2.6148396992       -1.5645861030
 C         -7.1796279200       -2.0162467182       -1.7335949657
 C         -7.5135520716       -0.8725729278       -1.0237832345
 C         -6.6022430877       -0.3186365998       -0.1387429597
 H         -6.8183487295        0.5640392647        0.4399646256
 H         -8.4790920485       -0.4120017907       -1.1567071731
 H         -7.8899837474       -2.4463849258       -2.4218086495
 H         -5.6832237367       -3.5052418156       -2.1158232045
 H         -4.0510864094       -2.5022252734       -0.5137988087
 H         -3.2701894928        0.4076237843       -0.8367452422
 H         -2.8877750665        1.8656245812        2.4520145420
 H         -0.7262888811        2.8071308409        3.2153557084
 H          1.2250638386        2.8009187151        1.7037352505
 C          1.4078537247        1.8548218485       -0.7864344253
 H          2.0122312458        2.7462453994       -0.5707687157
 C          1.1270617994        1.8027837259       -2.2730465263
 C          0.6193573992        3.0299821167       -2.9675841707
 C          2.0191690179        2.5550971797       -3.2126283777
 H          2.2537451493        2.1086452309       -4.1673378552
 H          2.8338814122        3.1195045526       -2.7832980644
 H         -0.1084297770        2.9136853296       -3.7559166609
 H          0.4820419102        3.9174653632       -2.3687039174
 H          0.7598552966        0.8397158144       -2.6065622523
 O          3.9152667251        2.1160935827        0.5191163198
