  62
        -98.93808198
 C          2.5242967599        1.1930420779        0.2384113735
 C          2.6905573616        0.3447356456       -0.8797560323
 C          3.5509216828       -0.8416214902       -0.6909398303
 C          4.1142903874       -1.0493245395        0.5137913999
 C          4.9789720225       -2.2022361083        0.9491851743
 C          4.1674209857       -3.4814590190        1.2139120361
 C          3.0922804587       -3.7892325866        0.1744320006
 H          2.5151239239       -4.6439701587        0.5374004566
 H          2.4062156830       -2.9425630960        0.1054898014
 C          3.6134022667       -4.1349455355       -1.2184898187
 H          4.2582811980       -5.0139342944       -1.1504554722
 H          2.7487360093       -4.4036020296       -1.8305909876
 C          4.3805483772       -3.0254159070       -1.9402299462
 H          5.3896725784       -2.9296589057       -1.5487224519
 H          4.4813176489       -3.3282084948       -2.9865495380
 C          3.6849134463       -1.6675333441       -1.9476217904
 H          4.1938206914       -1.0204203501       -2.6722485959
 H          2.6668246368       -1.7875201117       -2.3352470028
 H          3.6716709258       -3.3715574870        2.1817919490
 H          4.8601331552       -4.3216206073        1.2842656672
 H          5.7587431485       -2.3813808596        0.2151073697
 H          5.4620434423       -1.8986559522        1.8805852246
 O          3.9136989747       -0.2069057312        1.5691335195
 C          3.1213546316        0.9194874522        1.4668166239
 O          3.0209576263        1.5818624116        2.5212166695
 H          0.2301090824        0.4028266145        1.1150277725
 C         -0.3437577075        0.9519621791        0.3771193617
 C          0.2406435747        2.0418299287       -0.2565801535
 C         -0.5147942779        2.7482170926       -1.1831982219
 C         -1.8091162256        2.3554644351       -1.4782170792
 C         -2.3775563254        1.2569285901       -0.8608379219
 C         -1.6363572742        0.5508111438        0.0778237420
 N         -2.2015060732       -0.5745210363        0.7054626846
 S         -3.6944544076       -0.3870320881        1.4536057393
 O         -3.8857852107        0.9675692727        1.9182445873
 O         -3.7456471790       -1.4251995452        2.4599881934
 C         -4.8677378994       -0.7647874950        0.1692671453
 C         -4.7641427594       -1.9859103312       -0.4676855800
 C         -5.6746202195       -2.2995355363       -1.4640565682
 C         -6.6689986529       -1.3935277593       -1.8022497666
 C         -6.7614167521       -0.1731059308       -1.1508460528
 C         -5.8530131132        0.1475001247       -0.1538939699
 H         -5.8814219630        1.0862043365        0.3759942367
 H         -7.5351752654        0.5295623759       -1.4153068764
 H         -7.3759926922       -1.6406264221       -2.5783980587
 H         -5.6056116308       -3.2473450247       -1.9732360750
 H         -3.9787761356       -2.6618542960       -0.1728762259
 H         -1.5613150589       -1.0571555109        1.3194918855
 H         -3.3815954417        0.9430794831       -1.0950869114
 H         -2.3820180003        2.9109916347       -2.2048075048
 H         -0.0887883087        3.6055738132       -1.6777002523
 C          1.6493207639        2.4273382674        0.1285329962
 H          1.6140571298        2.8648971030        1.1379071148
 C          2.2797936955        3.4308594771       -0.8151209089
 C          2.0785675466        4.9004388178       -0.6036953731
 C          3.4101998804        4.2771744992       -0.3146934486
 H          4.2346053091        4.4840922277       -0.9803509171
 H          3.7046398920        4.1489491838        0.7172096379
 H          1.9920522423        5.5393834898       -1.4695992009
 H          1.4715014254        5.2072707325        0.2347690671
 H          2.3431279702        3.0603243397       -1.8316404358
 O          2.1404517927        0.5553601293       -1.9918534107
