  62
        -98.95136377
 C          1.8308669658        1.2417241925       -0.2861101366
 C          2.9104517406        0.5454153840        0.3040194906
 C          3.2134108249       -0.7684233622       -0.2719233100
 C          2.4866343871       -1.2275405758       -1.3072068514
 C          2.6627406050       -2.5552332800       -1.9917850789
 C          1.9375666371       -3.7039196683       -1.2769396686
 C          2.6039454780       -4.1850897770        0.0126615005
 H          3.6620724278       -4.3770645833       -0.1715342537
 H          2.1387953815       -5.1368862653        0.2772889004
 C          2.4485830901       -3.2200392529        1.1963886522
 H          2.1682161446       -3.7841802131        2.0897755059
 H          1.6259322551       -2.5290623299        0.9937575579
 C          3.7095007397       -2.4263570275        1.5416466990
 H          4.4864949632       -3.1104065499        1.8917814423
 H          3.4677052376       -1.7439095553        2.3608133729
 C          4.2780032978       -1.5948683903        0.3843990667
 H          4.7588316988       -2.2460094240       -0.3452745494
 H          5.0266308638       -0.9103900082        0.7918205334
 H          1.8849151970       -4.5449087506       -1.9727280817
 H          0.9157594250       -3.3852660327       -1.0535648820
 H          2.2396230914       -2.4490270731       -2.9929921865
 H          3.7237207086       -2.7897616541       -2.0836334780
 O          1.4855077549       -0.5082604102       -1.8757326654
 C          1.0997862037        0.7119331764       -1.3485116913
 O          0.1173028168        1.2299439430       -1.9160984208
 H          0.2243328665        0.4432462296        1.4734533490
 C         -0.4847221023        1.2440165822        1.3214453803
 C         -0.0691614227        2.4372162544        0.7440671635
 C         -1.0048911536        3.4511741619        0.5811024493
 C         -2.3237447122        3.2576790460        0.9562522358
 C         -2.7436177504        2.0453399947        1.4726239034
 C         -1.8118476013        1.0296717823        1.6503333552
 N         -2.1798807648       -0.2461396003        2.1318993662
 S         -2.0420441568       -1.5012082127        1.0236168397
 O         -2.5277830425       -2.6741768809        1.7192889092
 O         -0.6964549396       -1.5707875708        0.5195372795
 C         -3.1980194348       -1.0567751808       -0.2600426887
 C         -4.4807388271       -1.5671781107       -0.1892316200
 C         -5.4172566423       -1.1650347820       -1.1268856354
 C         -5.0594186078       -0.2530038302       -2.1088564690
 C         -3.7697934706        0.2519826997       -2.1629311855
 C         -2.8242510930       -0.1489158775       -1.2303034607
 H         -1.8136391292        0.2295062974       -1.2611664485
 H         -3.4830977259        0.9608023003       -2.9231834885
 H         -5.7883919420        0.0658013811       -2.8371476880
 H         -6.4198781544       -1.5594240762       -1.0876286111
 H         -4.7099878041       -2.2754763467        0.5907540333
 H         -3.1059658074       -0.2736723365        2.5376923307
 H         -3.7787852280        1.8821903201        1.7325389645
 H         -3.0388681769        4.0547146459        0.8218917632
 H         -0.7026168609        4.3919315386        0.1506307566
 C          1.3740503093        2.5570627481        0.3176107593
 H          1.9947431560        2.7019512271        1.2148995405
 C          1.6229791159        3.7043887179       -0.6395400786
 C          1.9369024368        5.0744301433       -0.1185401734
 C          3.0117459412        4.2533083300       -0.7628514936
 H          3.3680300798        4.5401635385       -1.7407645682
 H          3.7726157671        3.8165004801       -0.1325091824
 H          1.9760986579        5.2060913494        0.9522103470
 H          1.5577997392        5.9302069262       -0.6565658931
 H          1.0352303919        3.6208173619       -1.5468747337
 O          3.5814375502        0.9976158115        1.2724470762
