  62
        -98.93929661
 C          0.1894384952        1.7774285584        0.5340590615
 C          0.8850099124        1.5158479488       -0.6676368724
 C          2.1861396034        0.8319193340       -0.5408584161
 C          2.6426322996        0.5184880164        0.6847633270
 C          3.9493878086       -0.1270503895        1.0713879786
 C          5.2042368099        0.3560282926        0.3279936168
 C          5.7716172279       -0.6822665241       -0.6416971809
 H          6.8334070444       -0.4749727567       -0.7925652045
 H          5.6963037744       -1.6677228189       -0.1779795780
 C          5.1091482028       -0.7183603976       -2.0179424318
 H          5.4974010033       -1.5907526968       -2.5485907755
 H          5.4088938857        0.1653781385       -2.5854269531
 C          3.5808067747       -0.7891849368       -2.0091743534
 H          3.2612226212       -1.1993491078       -2.9691894763
 H          3.2296683296       -1.4721668166       -1.2374389047
 C          2.9029706437        0.5778690020       -1.8384466997
 H          3.6275485329        1.3799793356       -2.0067033477
 H          2.1328251201        0.7063053127       -2.6055433017
 H          5.9704877782        0.5722373597        1.0743819921
 H          4.9924065825        1.2877804847       -0.1937038713
 H          4.0550279577        0.0695963567        2.1407730921
 H          3.8510619520       -1.2082690257        0.9601124062
 O          1.9147406983        0.7561663668        1.8155093720
 C          0.6796843760        1.3741827619        1.7734705409
 O          0.1286770853        1.5074788098        2.8862642266
 H         -1.5166574040       -0.1294413606        0.3672264256
 C         -2.1683840856        0.3827739880       -0.3255582700
 C         -2.1094560055        1.7677892121       -0.4129083825
 C         -2.9585249282        2.4141354349       -1.3019311360
 C         -3.8322663630        1.6845045419       -2.0892306548
 C         -3.8904874116        0.3066393155       -1.9955107524
 C         -3.0498174581       -0.3495882094       -1.1027005679
 N         -3.0661624174       -1.7464615215       -0.9965430057
 S         -2.7105254573       -2.5110648643        0.4432565265
 O         -3.2957708995       -3.8275592597        0.2967155634
 O         -3.1547737650       -1.7468024747        1.5850882354
 C         -0.9401114347       -2.6918638252        0.4457349245
 C         -0.2025846030       -2.2597639980        1.5290966880
 C          1.1628173899       -2.4968033799        1.5492326084
 C          1.7621094071       -3.1576562665        0.4885491779
 C          1.0112368240       -3.5690917960       -0.6022458008
 C         -0.3540093877       -3.3388517928       -0.6244176208
 H         -0.9748555285       -3.6594895302       -1.4441314762
 H          1.4855527083       -4.0735508043       -1.4285659749
 H          2.8207037595       -3.3658696564        0.5167990887
 H          1.7442707296       -2.1617831677        2.3938731872
 H         -0.7019962346       -1.7442714928        2.3359161301
 H         -3.7925981745       -2.2146983622       -1.5174759712
 H         -4.5743550668       -0.2606070957       -2.6082334278
 H         -4.4819126924        2.1975419502       -2.7820981868
 H         -2.9331184815        3.4883848479       -1.3832573694
 C         -1.1442812238        2.4976735343        0.4893208455
 H         -1.5471831365        2.4604651495        1.5130938859
 C         -0.9341899230        3.9472305870        0.0997378401
 C         -1.8444136258        5.0152368053        0.6249971625
 C         -0.4403462707        4.9084370022        1.1373223732
 H          0.2762861655        5.6613313640        0.8453284617
 H         -0.2853473250        4.5218017522        2.1344926437
 H         -2.0905206234        5.8466268574       -0.0183424475
 H         -2.6462004409        4.7113840324        1.2811929799
 H         -0.5444824597        4.0526029569       -0.9063501070
 O          0.4452497435        1.8431206764       -1.8011147908
