  62
        -98.93774406
 C          1.8287520300        0.7356739218        0.8674771789
 C          2.1626999499        0.3524449498       -0.4517286805
 C          3.5982404098        0.3499167393       -0.7894856607
 C          4.4996140299        0.7076818608        0.1442552887
 C          6.0069196299        0.8399349007        0.0744443783
 C          6.7932465198        0.2222442789       -1.0790657008
 C          6.7845985298       -1.3056227611       -1.1148278885
 H          7.3645212099       -1.6764691498       -0.2658303480
 H          7.2893849298       -1.6283814925       -2.0280245380
 C          5.4064673499       -1.9595897510       -1.0515352273
 H          4.9336070500       -1.7270070596       -0.0951134976
 H          5.5491046899       -3.0432655111       -1.0833280957
 C          4.4504061397       -1.5837639928       -2.1819829778
 H          3.5752282798       -2.2342730927       -2.1014736867
 H          4.9257735097       -1.7795547343       -3.1450809976
 C          3.9467101297       -0.1299103828       -2.1687860500
 H          3.0201811996       -0.0893773137       -2.7487348300
 H          4.6593252596        0.5409903665       -2.6423235311
 H          7.8311279798        0.5428234992       -0.9536952414
 H          6.4518048197        0.6270243775       -2.0271249514
 H          6.3842587200        0.4380495421        1.0202111689
 H          6.2116842199        1.9161277207        0.0946544967
 O          4.1235671400        1.0859837627        1.4023415681
 C          2.7984675801        1.0971948932        1.7991229983
 O          2.6178705302        1.4367323650        2.9866170178
 O          1.3053611598        0.0299731084       -1.3142083200
 C          0.3763226000        0.7497744824        1.3044904690
 C         -0.2516035300       -0.6073951679        1.0971012412
 C          0.4636071101       -1.7490867374        1.4499713128
 C         -0.0792787599       -3.0063750976        1.2736071548
 C         -1.3562612799       -3.1531130985        0.7607847652
 C         -2.0858047500       -2.0212914890        0.4212159835
 C         -1.5315007000       -0.7588795887        0.5871020015
 H         -2.1145398801        0.1058228408        0.3178913703
 N         -3.3772702900       -2.1356259998       -0.1123080162
 S         -4.5714594000       -1.0535795692        0.3315096423
 O         -4.4147313999       -0.6156383071        1.6988803916
 O         -5.8114401000       -1.7353321797        0.0243490834
 C         -4.3886415602        0.3240268491       -0.7813638898
 C         -4.0234656403        0.0914627871       -2.0924357195
 C         -3.9297696204        1.1672462358       -2.9608755112
 C         -4.2101374304        2.4483886165       -2.5104664031
 C         -4.5821320703        2.6644520685       -1.1927339034
 C         -4.6728747102        1.5932350698       -0.3175168718
 H         -4.9467470501        1.7171831414        0.7182445981
 H         -4.7999504103        3.6614461490       -0.8434829049
 H         -4.1365851105        3.2833026754       -3.1894383344
 H         -3.6370739805        1.0034190442       -3.9855459910
 H         -3.8086008903       -0.9150459034       -2.4101386480
 H         -3.7302947900       -3.0787486700       -0.1826184147
 H         -1.7829916199       -4.1351354987        0.6234198667
 H          0.4931554602       -3.8813473772        1.5433494961
 H          1.4588613602       -1.6365051767        1.8589512026
 H          0.3834107601        0.9573047141        2.3852787687
 C         -0.3620659801        1.8689299013        0.5988422174
 C         -1.5181512900        2.5539872723        1.2612250965
 C         -0.2095929501        3.2684256521        1.1112093952
 H         -0.1411087601        4.0750499510        0.3971340040
 H          0.4036873400        3.4089701135        1.9896822350
 H         -2.3467694501        2.8706348613        0.6459447261
 H         -1.8060595399        2.2138358638        2.2449151970
 H         -0.3972320002        1.7285153997       -0.4755641424
