  62
        -98.94763458
 C          0.7958823663        1.1729176096        0.5967766228
 C          1.2422826851        0.7385783577       -0.6746151182
 C          2.1733735592       -0.3963359792       -0.6651903389
 C          2.5060435431       -0.9792259240        0.5003098565
 C          3.4845342910       -2.1083744956        0.6766538545
 C          4.9473727962       -1.6471151570        0.7485789771
 C          5.5536439530       -1.2021535211       -0.5832030485
 H          6.6324368116       -1.1249008967       -0.4333586585
 H          5.3841928993       -1.9740304591       -1.3344143322
 C          5.0318062538        0.1453597754       -1.1012665125
 H          4.5542750809        0.6907410809       -0.2837859285
 H          5.8728845002        0.7537376038       -1.4418131747
 C          4.0478840379        0.0410608702       -2.2669002283
 H          4.5538866168       -0.3839780069       -3.1365077096
 H          3.7206810947        1.0506212972       -2.5278694769
 C          2.7985786349       -0.7983249829       -1.9665427302
 H          2.0654338807       -0.6156182012       -2.7555425977
 H          3.0500084986       -1.8579223214       -1.9577741082
 H          5.0243616634       -0.8343164745        1.4745115039
 H          5.5357138809       -2.4861730907        1.1271580528
 H          3.2326431609       -2.5993347148        1.6183120830
 H          3.3744509403       -2.8253112704       -0.1357801948
 O          1.9739585846       -0.5931610974        1.6914906354
 C          1.1312792786        0.5034511816        1.7722201276
 O          0.7498478513        0.7754683849        2.9302531444
 O          0.8977902533        1.2791771343       -1.7567932214
 C         -0.0753419756        2.4100255617        0.7050500539
 C         -1.3104598536        2.2761984267       -0.1508493397
 C         -1.8170818740        3.3127152919       -0.9243610661
 C         -2.9659642849        3.1276623805       -1.6735525138
 C         -3.6345096259        1.9179633512       -1.6609460902
 C         -3.1382525457        0.8755337176       -0.8849728544
 C         -1.9878821055        1.0638511772       -0.1372821087
 H         -1.6080581463        0.2574101312        0.4733426853
 N         -3.7702818232       -0.3730552898       -0.8795574364
 S         -3.5942241600       -1.4503800232        0.3750016779
 O         -4.6219557063       -2.4418664969        0.1343994403
 O         -3.6460774581       -0.7984853864        1.6633888890
 C         -2.0051394373       -2.2067621207        0.1126273732
 C         -1.2152825846       -2.5052630212        1.2046334113
 C         -0.0179904479       -3.1725636408        1.0044296948
 C          0.3677626048       -3.5238724818       -0.2793334523
 C         -0.4284409143       -3.2029728607       -1.3673501397
 C         -1.6306313078       -2.5431420470       -1.1727027410
 H         -2.2774673709       -2.2847941171       -1.9944555239
 H         -0.1184109507       -3.4691338997       -2.3649006260
 H          1.2929016984       -4.0562738345       -0.4302991211
 H          0.6054763861       -3.4112587229        1.8512548359
 H         -1.5447151019       -2.2017523034        2.1866330593
 H         -4.6643705069       -0.4267939838       -1.3426026920
 H         -4.5285765808        1.7742042616       -2.2479061300
 H         -3.3476730550        3.9388296573       -2.2748654212
 H         -1.3113249911        4.2640441319       -0.9447989180
 H         -0.3980173475        2.4673005906        1.7558896988
 C          0.7502842561        3.6394078418        0.3795614778
 C          0.4631152104        4.9489456340        1.0484598560
 C          1.6902134933        4.1720722840        1.4174454918
 H          2.6533698108        4.5439534927        1.1013876234
 H          1.7097269728        3.6655434624        2.3719384138
 H          0.5875230174        5.8580822944        0.4795544939
 H         -0.3479184649        4.9801920867        1.7604341238
 H          1.0852755558        3.6518735439       -0.6515431817
