  62
        -98.93582450
 C         -2.3784092543        0.4847086555       -0.9109819306
 C         -3.4292740460        1.0827209654       -0.1707516987
 C         -4.7324007666        0.3990766161       -0.2436239308
 C         -4.8622615244       -0.7118993097       -0.9890904675
 C         -6.1116702905       -1.5365272242       -1.0950540818
 C         -6.1325367438       -2.6486141221       -0.0369551720
 C         -5.8163701895       -2.1613429919        1.3771662071
 H         -5.8902157462       -3.0244200532        2.0423606394
 H         -4.7798944225       -1.8175581347        1.4116836318
 C         -6.7387865662       -1.0439940891        1.8844107667
 H         -7.6470096704       -1.0114610941        1.2816030832
 H         -7.0377287992       -1.2752458734        2.9089519344
 C         -6.0983721659        0.3450514173        1.9102923791
 H         -5.1408445993        0.2970186266        2.4348519855
 H         -6.7514355935        1.0099274142        2.4818005235
 C         -5.8652161730        0.9982623251        0.5421026357
 H         -6.7896571295        0.9784426383       -0.0382976985
 H         -5.5891723590        2.0424539054        0.7157131168
 H         -7.1171469991       -3.1195657045       -0.0504120027
 H         -5.3910246453       -3.4019983935       -0.3128694602
 H         -6.9788964912       -0.8900989856       -0.9755978409
 H         -6.1409972106       -1.9899015343       -2.0872578188
 O         -3.8367057388       -1.2453340543       -1.7022549285
 C         -2.5785694422       -0.6709227470       -1.6711003908
 O         -1.7290664802       -1.2689477221       -2.3637144788
 H          1.5310856317        0.0196028430       -1.0594919468
 C          1.1481085259        0.0422824717       -0.0496183215
 C         -0.1326316406        0.5130632666        0.1973636673
 C         -0.6083169611        0.5042019870        1.5049826116
 C          0.1884646844        0.0419710530        2.5364665087
 C          1.4767813448       -0.3988647597        2.2900736679
 C          1.9587609639       -0.4003189705        0.9865283306
 N          3.2555861221       -0.8519530052        0.6956452932
 S          4.1071275776       -0.0396331374       -0.5180951874
 O          3.8788510712        1.3830787589       -0.4075884014
 O          3.7900410196       -0.6400058853       -1.7895096796
 C          5.7854249973       -0.4367327033       -0.0661798226
 C          6.5173728111        0.4669167249        0.6808752732
 C          7.8114803420        0.1367327708        1.0517214416
 C          8.3471645986       -1.0855293163        0.6743983824
 C          7.6002693167       -1.9818371531       -0.0759788954
 C          6.3061834286       -1.6578723779       -0.4512788807
 H          5.6916465688       -2.3172552973       -1.0419770486
 H          8.0212468240       -2.9296698719       -0.3702926133
 H          9.3544942200       -1.3399960416        0.9638877454
 H          8.3957938793        0.8327184279        1.6317544608
 H          6.0626774136        1.4086201823        0.9434749073
 H          3.8188904325       -0.9937917140        1.5230891113
 H          2.1020072116       -0.7453587465        3.0988984453
 H         -0.1925826894        0.0402889383        3.5467035203
 H         -1.6013267475        0.8767616330        1.7048210482
 C         -0.9643746993        1.0394515794       -0.9439108552
 H         -0.5217282859        0.6477184564       -1.8747246335
 C         -0.9170634251        2.5594565471       -1.0363769988
 C         -0.5013366519        3.4484204561        0.0925160433
 C          0.4046446096        3.2687253406       -1.0861931717
 H          0.5227558639        4.0880091517       -1.7796525356
 H          1.3008116324        2.6792286933       -0.9496909451
 H         -1.0269069129        4.3835998005        0.2102495008
 H         -0.2193197941        2.9885967098        1.0263130812
 H         -1.6965863353        2.9445446871       -1.6867233412
 O         -3.3099385535        2.1245888371        0.5219575151
