  62
        -98.94570343
 C         -2.5593986934       -0.1441217073        0.0754447238
 C         -2.4299211069       -1.2092694976       -0.8453417253
 C         -1.8914672701       -2.4616310949       -0.3057524644
 C         -1.5566664706       -2.5364009197        0.9954562627
 C         -0.9777841408       -3.7374188234        1.6926735127
 C          0.5419049373       -3.8683084925        1.5196812655
 C          0.9971821390       -4.3586329529        0.1443692011
 H          0.4327156949       -5.2503099402       -0.1319079439
 H          2.0453186766       -4.6494048684        0.2382156814
 C          0.8805888637       -3.3060736873       -0.9666461738
 H          1.7933219107       -3.3050754289       -1.5683834846
 H          0.8056078310       -2.3107833145       -0.5214766686
 C         -0.2889273872       -3.5140556577       -1.9292592328
 H         -0.1299572200       -4.4282889972       -2.5067875090
 H         -0.3024057075       -2.6715760364       -2.6262981412
 C         -1.6647802865       -3.5985454325       -1.2565931226
 H         -1.7713563892       -4.5520381917       -0.7392799134
 H         -2.4286699426       -3.5341861430       -2.0360638634
 H          0.8981542105       -4.5748945530        2.2730950016
 H          0.9992812863       -2.8965209758        1.7228239354
 H         -1.4686271023       -4.6445327550        1.3382948365
 H         -1.1958539065       -3.6138614482        2.7555644987
 O         -1.7286837513       -1.5003529871        1.8575899403
 C         -2.1924728793       -0.2718643965        1.4156377413
 O         -2.2515044931        0.6042244223        2.3004929418
 O         -2.7485639836       -1.1156284313       -2.0637460608
 C         -3.0017768090        1.2166626832       -0.4268014284
 C         -1.9050147254        2.2321794813       -0.2051288463
 C         -2.1529152326        3.5715032554        0.0665550515
 C         -1.1013502965        4.4535860396        0.2532084313
 C          0.2103709037        4.0219064649        0.1954876548
 C          0.4690421912        2.6804386528       -0.0708302270
 C         -0.5841582702        1.8131568126       -0.3004480897
 H         -0.3699588152        0.7815641406       -0.5386448048
 N          1.7866532109        2.1924462594       -0.0625344982
 S          2.1271761202        0.5771382258       -0.3556746462
 O          1.8322532216        0.2238905695       -1.7284311645
 O          1.5039811366       -0.2209587388        0.6695544935
 C          3.8921761259        0.6007285984       -0.1097588335
 C          4.3739568474        0.6218151067        1.1853942702
 C          5.7435755201        0.6663438942        1.3909185416
 C          6.6044997390        0.6893882885        0.3034001240
 C          6.1068587641        0.6650681381       -0.9905748957
 C          4.7375343858        0.6212903877       -1.2024381364
 H          4.3042181503        0.5920708044       -2.1892313329
 H          6.7784031278        0.6794035778       -1.8338085311
 H          7.6701334165        0.7233017054        0.4661501224
 H          6.1335296668        0.6820922950        2.3958712666
 H          3.6654248812        0.5934952652        1.9972553013
 H          2.4812752620        2.8288750558       -0.4232570218
 H          1.0273380230        4.7060017422        0.3629871904
 H         -1.3087926098        5.4928549827        0.4585450944
 H         -3.1693327209        3.9239751584        0.1346470596
 H         -3.1449845539        1.0966458270       -1.5123671779
 C         -4.3213098745        1.6238347046        0.1968471107
 C         -5.3143825828        2.4334501861       -0.5809840709
 C         -5.5822871061        0.9860983666       -0.3020971361
 H         -6.3478064017        0.7277969689        0.4138900464
 H         -5.4889950141        0.2808344280       -1.1152318239
 H         -5.9017104331        3.1711035202       -0.0552233687
 H         -5.0527772934        2.7116200616       -1.5908715624
 H         -4.2359851579        1.7990648374        1.2633705493
