  62
        -98.94596583
 C          1.5756495908       -1.5748891044        0.2820538678
 C          1.4335794152       -0.2122226343        0.6403190972
 C          2.6853623614        0.5513665348        0.7510495104
 C          3.8582342789       -0.0667534204        0.5226727708
 C          5.1982786714        0.6090604945        0.5341171591
 C          5.5699565855        1.1239074381       -0.8638860167
 C          4.4607861188        1.9282086600       -1.5424519632
 H          4.8466705275        2.2608765561       -2.5085817578
 H          3.6140809494        1.2682085506       -1.7449661206
 C          3.9750873872        3.1431499345       -0.7397670774
 H          3.8905089856        3.9969893230       -1.4152697013
 H          4.7136753110        3.4033747670        0.0193822864
 C          2.6086707228        2.9610029510       -0.0761078711
 H          1.8831983860        2.6105096462       -0.8143361980
 H          2.2730007168        3.9392099958        0.2769699864
 C          2.5728131332        2.0033291443        1.1209141855
 H          3.3474957284        2.2797843592        1.8388667864
 H          1.5965696753        2.1101268476        1.6021210159
 H          6.4677157719        1.7388744781       -0.7777367448
 H          5.8064975718        0.2654498225       -1.4969961368
 H          5.1775979838        1.4343262910        1.2431095125
 H          5.9480244602       -0.1157355715        0.8557964755
 O          3.9536098636       -1.3821262259        0.1970139280
 C          2.8187338667       -2.1638808812        0.0541682929
 O          3.0447351728       -3.3464701693       -0.2747471095
 H         -2.2371284310       -1.4113183909        0.2865247215
 C         -1.8058599439       -1.3378795257       -0.6968324483
 C         -0.5350245143       -1.8246596525       -0.9533123157
 C         -0.0245909203       -1.7161866508       -2.2453834755
 C         -0.7674625656       -1.1321352396       -3.2522047097
 C         -2.0306245111       -0.6302963692       -2.9887158513
 C         -2.5484770718       -0.7349260142       -1.7038730464
 N         -3.8308419682       -0.2501536667       -1.4126915957
 S         -4.1880687189        0.4229731615        0.0712113913
 O         -4.3015549432       -0.6072313511        1.0735729700
 O         -5.3974500669        1.1826220893       -0.1764187370
 C         -2.8723640203        1.5542724887        0.4828674622
 C         -2.4213391591        1.6050684723        1.7842665013
 C         -1.4599562069        2.5409895274        2.1261347805
 C         -0.9643218702        3.4027454555        1.1624008918
 C         -1.4200040797        3.3330939783       -0.1440143472
 C         -2.3879022361        2.4053536960       -0.4892939295
 H         -2.7624574782        2.3372577407       -1.4980519593
 H         -1.0214070297        3.9974450915       -0.8943545145
 H         -0.2126581216        4.1293932103        1.4291795070
 H         -1.0947896186        2.5871254249        3.1400439159
 H         -2.8234281977        0.9069066660        2.5013191349
 H         -4.2881048096        0.2407423638       -2.1665158599
 H         -2.6116908434       -0.1666619340       -3.7713585399
 H         -0.3593390287       -1.0584723161       -4.2490181076
 H          0.9685406769       -2.0965504702       -2.4447717236
 C          0.3378438036       -2.4389912251        0.1130708073
 H          0.6910488852       -3.4150422931       -0.2488723888
 C         -0.3640876800       -2.6348165421        1.4394952220
 C         -1.2846704064       -3.8010944984        1.6310957911
 C          0.0439075545       -3.7722136340        2.3242812390
 H          0.0665253109       -3.6128273008        3.3919452930
 H          0.8239670310       -4.4275190140        1.9643028697
 H         -1.4085807626       -4.4802000328        0.8009077740
 H         -2.1796834617       -3.6594809745        2.2182445375
 H         -0.6236075802       -1.6990536294        1.9212134994
 O          0.3248466273        0.3400894039        0.8544234491
