  62
        -98.93696053
 C         -1.8367169241       -0.8895248096        0.7966421984
 C         -2.1384864754       -0.3660068742       -0.4824965112
 C         -3.5645669849       -0.3405115692       -0.8525057872
 C         -4.4802304869       -0.8168084800        0.0084095226
 C         -5.9734810390       -0.9228746699       -0.1763770281
 C         -6.6958925882        0.2797912584       -0.8000878920
 C         -6.0797883971        1.6486424514       -0.4760160440
 H         -6.8652162609        2.3134463171       -0.1114141705
 H         -5.3422893750        1.5485777589        0.3222435684
 C         -5.4288790192        2.3134620226       -1.6915128327
 H         -6.0842820524        2.1803157736       -2.5550638051
 H         -5.3501762291        3.3870642451       -1.5039617512
 C         -4.0287934516        1.8121067845       -2.0440091436
 H         -3.3130041071        2.1455413065       -1.2874721717
 H         -3.7339724206        2.2758492871       -2.9883959786
 C         -3.8858693766        0.2872457098       -2.1781174304
 H         -4.7707441959       -0.1540014060       -2.6302242033
 H         -3.0258635593        0.0868496200       -2.8225664294
 H         -6.7386444977        0.1583586822       -1.8815623839
 H         -7.7257742259        0.2502179090       -0.4402559518
 H         -6.1800898806       -1.8142001864       -0.7757067076
 H         -6.3704009273       -1.1095273640        0.8243673217
 O         -4.1401553530       -1.3258712809        1.2273604105
 C         -2.8246376850       -1.3650525471        1.6558224255
 O         -2.6683163747       -1.8335627618        2.8023286026
 H          2.0874631279       -0.1566709680        0.3671755874
 C          1.4960815849        0.6638736904        0.7366058252
 C          0.2192824210        0.4388421111        1.2261224973
 C         -0.5079934320        1.5225614636        1.7122783908
 C          0.0211838037        2.7977165624        1.6865342868
 C          1.2948373275        3.0186300655        1.1922136462
 C          2.0356325797        1.9433817201        0.7188358386
 N          3.3204201594        2.1371744221        0.1943820163
 S          4.5233017811        1.0040173006        0.4366263981
 O          4.4189186737        0.3816395667        1.7358586748
 O          5.7534936425        1.7223401961        0.1780074561
 C          4.2856892059       -0.2065942997       -0.8470460600
 C          4.5863804566       -1.5270774163       -0.5771258898
 C          4.4438886699       -2.4680148550       -1.5850157785
 C          4.0055834404       -2.0734440920       -2.8394962605
 C          3.7107821888       -0.7428543221       -3.0949711891
 C          3.8552562845        0.2035053148       -2.0931113825
 H          3.6288747427        1.2435899945       -2.2580170183
 H          3.3662404689       -0.4400359108       -4.0706900136
 H          3.8913000825       -2.8074044194       -3.6216377366
 H          4.6728400461       -3.5034377454       -1.3878206288
 H          4.9127322289       -1.7916795351        0.4162695532
 H          3.6699680003        3.0824555896        0.2465438279
 H          1.7099653545        4.0148437469        1.1709509552
 H         -0.5595095687        3.6282211577        2.0596010810
 H         -1.5012688948        1.3505276770        2.1054572490
 C         -0.3959090391       -0.9389708269        1.2691181108
 H         -0.4289870360       -1.2623809749        2.3204729093
 C          0.3740415684       -1.9684103742        0.4674751916
 C          1.5268830097       -2.7021392818        1.0816828694
 C          0.2338502685       -3.4156396163        0.8280189317
 H          0.1939922064       -4.1441014229        0.0324064074
 H         -0.3957062291       -3.6559555369        1.6726939827
 H          2.3739475327       -2.9407698792        0.4565243077
 H          1.7877381882       -2.4621932174        2.1017488716
 H          0.4299467757       -1.7167729441       -0.5855984530
 O         -1.2630372109        0.0544147429       -1.2816527422
