  62
        -98.93994147
 C         -2.2409833503       -1.0817247596       -0.4689388799
 C         -3.4813004801       -0.8249962896        0.1708013304
 C         -4.1838375500        0.3985754806       -0.2323076690
 C         -3.6318705001        1.1916560808       -1.1682175589
 C         -4.2012454000        2.5033094110       -1.6243629584
 C         -3.6489679097        3.6663455507       -0.7883735482
 C         -3.7316673594        3.4369516302        0.7209703418
 H         -3.0655312794        2.6140714901        0.9921113914
 H         -3.3440587592        4.3349229000        1.2071109220
 C         -5.1448733593        3.1412532703        1.2428338220
 H         -5.3145483790        3.7319047900        2.1454127822
 H         -5.8845581394        3.4554397706        0.5057391723
 C         -5.3903030194        1.6779556702        1.6151745516
 H         -4.5947958593        1.3309123299        2.2793875413
 H         -6.3299707893        1.6212559301        2.1708354818
 C         -5.4946993798        0.6997061306        0.4384771613
 H         -5.8558386899       -0.2551641195        0.8310903911
 H         -6.2214564999        1.0711851709       -0.2864982884
 H         -2.5992863797        3.8143099006       -1.0538476584
 H         -4.1980804096        4.5722042208       -1.0518016578
 H         -3.9236738802        2.6542482313       -2.6688593784
 H         -5.2862129800        2.4688358611       -1.5469920782
 O         -2.4539173303        0.9046314608       -1.7774816293
 C         -1.7188105404       -0.2256716994       -1.4395689698
 O         -0.6603443305       -0.3417913993       -2.0861863600
 O         -3.9804255700       -1.5899090198        1.0393239103
 C         -1.4778151903       -2.3181756599       -0.0199088405
 C         -0.4025446401       -1.8913828203        0.9510726494
 C         -0.6839854998       -1.8868715107        2.3146155895
 C          0.2625321305       -1.4665596511        3.2298336194
 C          1.5065527505       -1.0402777311        2.8018141493
 C          1.7978353402       -1.0379439807        1.4419650592
 C          0.8468443599       -1.4630024603        0.5241773793
 H          1.0805456397       -1.4215630301       -0.5274274208
 N          3.0698009401       -0.6386579008        0.9943959090
 S          3.1828812299        0.2849744696       -0.4177319607
 O          2.2366359601        1.3771167597       -0.3697943402
 O          3.1270117696       -0.5944862100       -1.5562652610
 C          4.8467981901        0.9052236893       -0.2345765909
 C          5.0510687303        2.1846129392        0.2457720295
 C          6.3499315504        2.6389047189        0.4144118093
 C          7.4169533302        1.8090575189        0.1054431588
 C          7.1966209100        0.5270907191       -0.3761143015
 C          5.9006757899        0.0678907193       -0.5488148714
 H          5.6792658496       -0.9158056806       -0.9284164516
 H          8.0285060798       -0.1145058510       -0.6178555319
 H          8.4264879203        2.1645275387        0.2382054487
 H          6.5236912606        3.6361178388        0.7853527196
 H          4.1902785705        2.7956843792        0.4656887698
 H          3.6188742903       -0.2182370711        1.7330866190
 H          2.2487459607       -0.7105998214        3.5131915592
 H          0.0293168807       -1.4666886914        4.2838537995
 H         -1.6637633797       -2.2011584806        2.6451161296
 H         -2.2113016203       -2.9147503299        0.5406085995
 C         -0.9506404307       -3.1620268896       -1.1599285608
 C         -0.5794168408       -4.5883476997       -0.8886269513
 C         -1.8003891810       -4.2725741893       -1.6979357610
 H         -1.7819196212       -4.4645174290       -2.7602415110
 H         -2.7680550509       -4.4266114393       -1.2429571608
 H          0.2815065790       -4.9994871997       -1.3929728517
 H         -0.7198218607       -4.9568076700        0.1164635286
 H         -0.3503442208       -2.6107176994       -1.8721828708
