  62
        -98.93606251
 C         -2.4877859113       -0.1176640764       -0.6007916590
 C         -2.1969412947       -0.6429080046        0.6818742983
 C         -1.7986514341       -2.0583665067        0.7165752510
 C         -1.7258519904       -2.7540567449       -0.4317723783
 C         -1.3345685130       -4.1996677341       -0.5415945008
 C          0.1700752637       -4.3697669960       -0.7857059385
 C          1.0508442682       -3.5824508300        0.1844067007
 H          0.9356429332       -2.5127614733       -0.0068118976
 H          2.0891915529       -3.8344973712       -0.0450677672
 C          0.7734618795       -3.8581378857        1.6688738875
 H          1.7292514955       -3.9654246905        2.1858051427
 H          0.2358139971       -4.8010967582        1.7798096727
 C          0.0049653151       -2.7418119577        2.3796680189
 H          0.4597617545       -1.7790180640        2.1335272899
 H          0.1009930772       -2.8922356731        3.4585725990
 C         -1.4932782804       -2.6568067009        2.0604814349
 H         -1.9542707562       -1.9893856821        2.7944504341
 H         -1.9502220625       -3.6445369222        2.1576704228
 H          0.3976003556       -4.0336833993       -1.8003637268
 H          0.4095952640       -5.4330916837       -0.7166833106
 H         -1.8794308753       -4.6352211091       -1.3815269409
 H         -1.6243568861       -4.7147024902        0.3725261709
 O         -1.9966223416       -2.2089713939       -1.6475933693
 C         -2.3656824651       -0.8796067305       -1.7606592821
 O         -2.5704414193       -0.5000851201       -2.9343161896
 O         -2.2823641511        0.0237837151        1.7444952581
 C         -2.9023499094        1.3416921995       -0.7658344994
 C         -1.9030124317        2.1927659703       -0.0174464725
 C         -2.1388837543        3.1316542686        0.9777726759
 C         -1.0850049029        3.7985852997        1.5827052591
 C          0.2253841189        3.5372014250        1.2352774992
 C          0.4773410330        2.6058580465        0.2344122346
 C         -0.5790195061        1.9736323968       -0.3941861171
 H         -0.3637312814        1.2538283285       -1.1726206535
 N          1.7919021767        2.2914498493       -0.1622142925
 S          2.0919877143        0.6543751223       -0.4735029105
 O          1.7646172304        0.3758809453       -1.8510438288
 O          1.4462182645       -0.1653151534        0.5235338571
 C          3.8627641073        0.6017788218       -0.2677911077
 C          4.4041496003        0.0252914050        0.8649973715
 C          5.7818424275        0.0197277979        1.0206960353
 C          6.5887824747        0.5909434386        0.0485232628
 C          6.0302681253        1.1656553417       -1.0839402998
 C          4.6543040913        1.1723445642       -1.2470996743
 H          4.1747764596        1.5971842016       -2.1135434894
 H          6.6607952429        1.6064895867       -1.8390431019
 H          7.6601146619        0.5863678717        0.1725847873
 H          6.2183902505       -0.4291787120        1.8982233420
 H          3.7360262371       -0.4096732564        1.5910067576
 H          2.4844495655        2.6705909678        0.4705001776
 H          1.0424498833        4.0381057128        1.7319431384
 H         -1.2946803725        4.5195268762        2.3586133963
 H         -3.1346457501        3.3424592383        1.3218146205
 H         -2.7539882429        1.5610130897       -1.8377154914
 C         -4.4016848003        1.4428942594       -0.5292016485
 C         -5.0604173392        1.6088265423        0.8038656503
 C         -5.1591351902        2.6999197629       -0.2223370683
 H         -6.1097150532        2.8384682094       -0.7163184825
 H         -4.6102270441        3.6161068760       -0.0819433399
 H         -5.9416057750        1.0160568509        1.0034696875
 H         -4.4251439954        1.7294990680        1.6659412595
 H         -4.8990035715        0.7570096220       -1.2130546618
