  62
        -98.93757845
 C         -2.3011531504       -0.4214124488        0.8439672410
 C         -3.4284572904       -0.9670690395        0.1819247016
 C         -4.6739235504       -0.1895113794        0.2824674508
 C         -4.6827080804        0.9706296713        0.9619660196
 C         -5.8644746104        1.8869952714        1.0868348186
 C         -5.8815253105        2.9300253302       -0.0394565824
 C         -5.6919953405        2.3357770688       -1.4351280318
 H         -5.7521121705        3.1592770480       -2.1500341627
 H         -4.6853769905        1.9179469887       -1.5108680614
 C         -6.7174635105        1.2569374583       -1.8104843807
 H         -7.5843388004        1.3243187190       -1.1521739907
 H         -7.0675523305        1.4451244473       -2.8276404909
 C         -6.1720624604       -0.1720066116       -1.7844263392
 H         -5.2500938504       -0.2230194022       -2.3690473392
 H         -6.9033774904       -0.8241662621       -2.2694117885
 C         -5.8928191904       -0.7535321002       -0.3928491286
 H         -6.7737758104       -0.6319738795        0.2405095013
 H         -5.7007339404       -1.8236414603       -0.5132547975
 H         -6.8302092405        3.4681656402        0.0032793070
 H         -5.0758291905        3.6456901804        0.1396946368
 H         -6.7787105804        1.2970986213        1.0639450793
 H         -5.7991300804        2.4024639124        2.0464638081
 O         -3.5820073104        1.4683680719        1.5805249190
 C         -2.3770475704        0.7913313419        1.5379505197
 O         -1.4536505304        1.3603549926        2.1550284591
 O         -3.4241970904       -2.0454705802       -0.4701370673
 C         -0.9380059204       -1.0914716788        0.8764365916
 C         -0.1219631004       -0.8320573600       -0.3679140286
 C         -0.6179172704       -1.0992063314       -1.6388433584
 C          0.1728758896       -0.8919304825       -2.7542630686
 C          1.4761921196       -0.4470796123       -2.6211500091
 C          1.9842961196       -0.1835746010       -1.3546824094
 C          1.1756244396       -0.3569471699       -0.2406129192
 H          1.5714115996       -0.1360165789        0.7381223706
 N          3.3078159796        0.2789644092       -1.1918209799
 S          4.3769434696       -0.5964830698       -0.2196954790
 O          4.9235393796       -1.6987861806       -0.9859352378
 O          3.7445316396       -0.9403172785        1.0259161414
 C          5.6401186596        0.6293336705        0.0521615897
 C          6.8533867096        0.5307947199       -0.6004314202
 C          7.8124890496        1.5076933401       -0.3825822512
 C          7.5416941496        2.5608672210        0.4774056077
 C          6.3179871796        2.6458430116        1.1254012276
 C          5.3555432596        1.6722254614        0.9123368587
 H          4.3939867196        1.6958135019        1.3991042187
 H          6.1107269996        3.4653478323        1.7947063568
 H          8.2889444595        3.3200791012        0.6464542469
 H          8.7653527896        1.4438456496       -0.8827922512
 H          7.0227969496       -0.3093139308       -1.2543187393
 H          3.7612111596        0.4251127483       -2.0856081700
 H          2.0976770995       -0.3034660632       -3.4928484992
 H         -0.2244908204       -1.0948783335       -3.7375705784
 H         -1.6232517104       -1.4768714915       -1.7431455679
 H         -0.4023984104       -0.6317585579        1.7184203812
 C         -1.0042345703       -2.5888816085        1.1207255032
 C          0.2324643897       -3.2983528980        1.5807854739
 C         -0.9206707003       -3.1130698171        2.5206403637
 H         -1.5151170603       -3.9749337168        2.7844935846
 H         -0.8156821103       -2.3929615662        3.3193632830
 H          0.4285299497       -4.2884195484        1.1976356649
 H          1.1246790297       -2.7085390578        1.7364498033
 H         -1.6546204603       -3.1067472692        0.4281179537
