  62
        -98.94625698
 C          1.2992112813        1.1951325353        0.5067994659
 C          1.6934137813        0.4868779463       -0.6550679673
 C          2.4694461194       -0.7409165557       -0.4196814752
 C          2.6660557219       -1.1680242252        0.8401583490
 C          3.4721848771       -2.3751507031        1.2221624384
 C          4.9382683963       -2.0018568570        1.4836726795
 C          5.5636848411       -1.1444743238        0.3831715375
 H          5.0688613064       -0.1707186940        0.3651036712
 H          6.6052555096       -0.9693823435        0.6613383930
 C          5.5069260077       -1.7677457575       -1.0186019506
 H          6.4805396454       -1.6408191864       -1.4966138808
 H          5.3233038190       -2.8399026294       -0.9399713339
 C          4.4678100601       -1.1413204863       -1.9506359652
 H          4.6629623543       -1.4993687717       -2.9649138391
 H          4.5910521436       -0.0555137664       -1.9581089276
 C          3.0027532826       -1.4606771692       -1.6259413157
 H          2.3934803831       -1.1204530843       -2.4680286571
 H          2.8819417689       -2.5403573775       -1.5195010165
 H          5.5130898809       -2.9222634059        1.6018624968
 H          4.9922074025       -1.4455948048        2.4225013930
 H          3.4133894843       -3.1147810018        0.4258212979
 H          3.0484230986       -2.8002048960        2.1339753009
 O          2.1758604099       -0.5169704516        1.9269013417
 C          1.5024222262        0.6842617109        1.7892980771
 O          1.1268133023        1.1876630559        2.8691332150
 O          1.4272836800        0.8551571650       -1.8264788792
 C          0.5466408213        2.5133271190        0.3988510183
 C         -0.8472892261        2.2128654818       -0.0951139491
 C         -1.3194398096        2.5545811555       -1.3542816129
 C         -2.5919664950        2.1757382439       -1.7498811633
 C         -3.4157001594        1.4562261043       -0.9038210088
 C         -2.9522022748        1.1162574349        0.3610878056
 C         -1.6797805613        1.4936680665        0.7550657742
 H         -1.3134391452        1.2190899656        1.7365755638
 N         -3.7756935160        0.3600576068        1.2240938714
 S         -4.2375201612       -1.1335481590        0.6178462232
 O         -5.3359081003       -0.9531147654       -0.2970176886
 O         -4.5057826888       -1.9580879032        1.7746583031
 C         -2.8032266922       -1.7250721024       -0.2625631703
 C         -1.6911891695       -2.0840641922        0.4729858043
 C         -0.5494659014       -2.4947483738       -0.1942159023
 C         -0.5369758245       -2.5307831203       -1.5799057537
 C         -1.6595418066       -2.1632813808       -2.3040766516
 C         -2.8053530079       -1.7533503946       -1.6417633061
 H         -3.6997690653       -1.4594506963       -2.1660342914
 H         -1.6418059394       -2.1891920599       -3.3815183297
 H          0.3556224813       -2.8444344658       -2.0965232538
 H          0.3285708681       -2.7734657740        0.3671367704
 H         -1.7335811100       -2.0478066675        1.5505947922
 H         -3.3735102633        0.2433184000        2.1437885964
 H         -4.4040495340        1.1440558897       -1.2001760177
 H         -2.9452533017        2.4423074614       -2.7341434630
 H         -0.6863387694        3.1021684090       -2.0320703008
 H          0.4617665589        2.8958992580        1.4257029153
 C          1.2981915965        3.5259614098       -0.4364225053
 C          0.9560825561        4.9793673843       -0.3129050552
 C          2.2503449059        4.4643182849        0.2395667703
 H          3.1677974330        4.7222324847       -0.2679303969
 H          2.3538546198        4.3861237208        1.3123945056
 H          0.9854150445        5.5943547254       -1.1992757828
 H          0.1791707343        5.2514315005        0.3856912557
 H          1.5810903389        3.1495302278       -1.4112362068
