  62
        -98.93591687
 C          0.7573551706        2.0753572300       -0.4027519106
 C          1.2125978101        0.8437580697       -0.9285620104
 C          2.6096324800        0.4637047494       -0.6128302805
 C          3.3276304104        1.2370711493        0.2210074092
 C          4.7268300204        1.0245657090        0.7377406490
 C          4.8083545402       -0.0810393908        1.7993702393
 C          4.1044119297       -1.3802737107        1.4195072897
 H          4.1963192296       -2.0645259705        2.2667803099
 H          3.0414676597       -1.1836280003        1.2716458098
 C          4.6692077093       -2.0797930511        0.1855993298
 H          5.7421373092       -2.2335060815        0.3189957697
 H          4.1991329889       -3.0636211910        0.1297801001
 C          4.4362840993       -1.3685384914       -1.1511696103
 H          4.5766445589       -2.1085530016       -1.9440660902
 H          5.1775662195       -0.5921831317       -1.3240068806
 C          3.0347480895       -0.7943291210       -1.3307030603
 H          2.8793172294       -0.5826660312       -2.3955070803
 H          2.2917510692       -1.5578504506       -1.0795128400
 H          5.8621181701       -0.2806044011        2.0031990692
 H          4.3526711004        0.2951254596        2.7187148093
 H          5.4060488002        0.8166246986       -0.0835206310
 H          5.0354548308        1.9682322290        1.1934515288
 O          2.8152975708        2.3782105696        0.7690076090
 C          1.5565090409        2.8394789500        0.4513472191
 O          1.2589556714        3.9296731402        0.9817535089
 H         -1.2326819200        0.1069736008       -0.0443437498
 C         -1.8314361297        0.8253077511        0.4947288301
 C         -1.6443998693        2.1828220410        0.2713081297
 C         -2.4187468589        3.0927733414        0.9824150596
 C         -3.3624111589        2.6550109519        1.8938414099
 C         -3.5641759293        1.3019446721        2.0955872602
 C         -2.7950260297        0.3839456016        1.3898857703
 N         -2.9720409402       -0.9961952283        1.5745720207
 S         -3.0194069407       -1.9830073386        0.2184148909
 O         -3.5054561706       -1.2658101587       -0.9360398792
 O         -3.8188413910       -3.1204280382        0.6313132013
 C         -1.3555885209       -2.5595470692       -0.0206415292
 C         -0.9335184112       -2.8542271696       -1.3005680492
 C          0.3122931286       -3.4329484901       -1.4773207792
 C          1.1106506386       -3.7006798401       -0.3761778093
 C          0.6795407489       -3.3809019696        0.9022837607
 C         -0.5694843008       -2.8104548692        1.0858947508
 H         -0.9401819306       -2.5543359188        2.0648068908
 H          1.3111062390       -3.5765931196        1.7542968307
 H          2.0765555685       -4.1606055004       -0.5167549793
 H          0.6576944183       -3.6655815004       -2.4718036292
 H         -1.5804053613       -2.6177576696       -2.1298157991
 H         -3.7031034101       -1.2434110979        2.2266582009
 H         -4.3085222993        0.9547888425        2.7963816004
 H         -3.9530632486        3.3719931523        2.4436551798
 H         -2.2645463786        4.1504972613        0.8261499093
 C         -0.6088808893        2.6670045204       -0.7091835205
 H         -0.4890955889        3.7505675904       -0.5457791908
 C         -1.0260686496        2.4859507602       -2.1619880204
 C         -2.0806804800        1.5347960604       -2.6321508001
 C         -2.3533599195        3.0075140505       -2.6289254904
 H         -2.4044271794        3.5301012103       -3.5723164405
 H         -3.0289730592        3.3865215409       -1.8764682804
 H         -1.9127726603        1.0433315401       -3.5790143000
 H         -2.5887401301        0.9076294008       -1.9160091298
 H         -0.1864458096        2.6316273498       -2.8353791406
 O          0.5141113497        0.0753616298       -1.6381599401
