  62
        -98.93794537
 C         -2.4648952524       -0.9660850304        0.4851586119
 C         -2.5842163513        0.2966105792        1.1246551424
 C         -3.8481498773        1.0164245694        0.9280072218
 C         -4.8143523912        0.4499355351        0.1830129360
 C         -6.1326743662        1.0875590801       -0.1447800736
 C         -6.0537942142        1.8844418576       -1.4544701300
 C         -4.8590265479        2.8352927940       -1.5282299678
 H         -3.9372665577        2.2490712368       -1.5495821943
 H         -4.9241152993        3.3656112851       -2.4807589458
 C         -4.7853726151        3.8524521294       -0.3808277011
 H         -4.5551543851        4.8349088324       -0.7982703222
 H         -5.7562785569        3.9285424957        0.1099657556
 C         -3.7112973102        3.5508233168        0.6660591038
 H         -2.7527994729        3.3791432968        0.1695383531
 H         -3.5977391100        4.4335903272        1.3009735602
 C         -3.9952074099        2.3584018427        1.5882410582
 H         -4.9882103246        2.4630348868        2.0301716026
 H         -3.2560018443        2.3776507737        2.3944416793
 H         -5.9805594110        1.1784068175       -2.2848268151
 H         -6.9797715363        2.4506139627       -1.5701099809
 H         -6.8782826445        0.2983447494       -0.2542015743
 H         -6.4269872545        1.7412900379        0.6739818178
 O         -4.6739712136       -0.7648325905       -0.4007898707
 C         -3.5010938509       -1.4980693204       -0.2830694345
 O         -3.5348087598       -2.5801389948       -0.9013719792
 O         -1.6721003195        0.7968248061        1.8370020440
 C         -1.1526480773       -1.7038372954        0.6871284588
 C         -0.2135815855       -1.5104657407       -0.4804017573
 C         -0.5271287382       -1.9799046826       -1.7516209786
 C          0.3607562501       -1.8057250337       -2.7970177930
 C          1.5778202664       -1.1802088336       -2.5915315458
 C          1.8996997214       -0.7031117221       -1.3262108374
 C          0.9975039744       -0.8622185215       -0.2831870373
 H          1.2489131291       -0.4843842686        0.6954347631
 N          3.1196612303       -0.0297630470       -1.1089215791
 S          4.1651098564       -0.5134158224        0.1242967438
 O          4.9009989865       -1.6876372327       -0.3006806604
 O          3.4477346571       -0.6299930007        1.3659935682
 C          5.2520631625        0.8964655723        0.1738019256
 C          6.5460744713        0.7944605736       -0.2978332076
 C          7.3614981283        1.9151596418       -0.2636346812
 C          6.8700140521        3.1110330961        0.2367356112
 C          5.5675154950        3.1972703290        0.7067052489
 C          4.7477844717        2.0807458419        0.6759892156
 H          3.7312199546        2.1006305632        1.0342602864
 H          5.1884915193        4.1285386717        1.0960143204
 H          7.5055239277        3.9821263855        0.2628007626
 H          8.3747267506        1.8515975711       -0.6263634836
 H          6.8865586194       -0.1570309461       -0.6731902188
 H          3.6627946667        0.0346007815       -1.9613518150
 H          2.2736089723       -1.0559216435       -3.4082557292
 H          0.1070062574       -2.1706679765       -3.7810688760
 H         -1.4739354482       -2.4722901029       -1.9118017868
 H         -0.6880914197       -1.2266220852        1.5611390797
 C         -1.3176323447       -3.1813918581        0.9865919636
 C         -0.1763341922       -3.9152912810        1.6223296388
 C         -1.4210054052       -3.6363564610        2.4095834384
 H         -2.0814029432       -4.4587731596        2.6400530727
 H         -1.3765103249       -2.8816297850        3.1813749924
 H          0.0200098110       -4.9303495795        1.3125035882
 H          0.7137893715       -3.3490407922        1.8565399895
 H         -1.9093558003       -3.7090716997        0.2502304986
