  62
        -98.94284837
 C         -2.0131180886       -1.4675786329       -0.0115860246
 C         -1.6761037504       -0.1846878212       -0.5062454034
 C         -2.8067283695        0.7107731908       -0.7963810364
 C         -4.0633624294        0.2833790019       -0.5815337996
 C         -5.2973000896        1.1160826337       -0.7703133227
 C         -5.6733308572        1.8496919611        0.5252279759
 C         -4.5051970512        2.5839698315        1.1840043973
 H         -3.7701688826        1.8513117509        1.5252405363
 H         -4.8968198027        3.0831781797        2.0730028089
 C         -3.8115908596        3.6150688705        0.2826865461
 H         -3.6478786117        4.5284402277        0.8583871430
 H         -4.4623362916        3.8720386211       -0.5539944094
 C         -2.4478809161        3.1750354025       -0.2532827634
 H         -1.8235274165        2.8280388445        0.5742096041
 H         -1.9594733339        4.0488872297       -0.6929498867
 C         -2.4794745749        2.0788098022       -1.3256382240
 H         -1.4763182684        2.0019878466       -1.7558014995
 H         -3.1723104531        2.3609070570       -2.1209832688
 H         -6.0614810508        1.1172097474        1.2369226445
 H         -6.4713993970        2.5595353622        0.3001360116
 H         -6.1184732212        0.4562321347       -1.0553375785
 H         -5.1268647383        1.8337133449       -1.5705372212
 O         -4.3499565549       -0.9553292319       -0.1049642873
 C         -3.3390930386       -1.8493658917        0.2092827544
 O         -3.7419793236       -2.9326640872        0.6773950003
 O         -0.4978488247        0.2102431353       -0.6960504401
 C         -0.9427200161       -2.4790554195        0.3610425637
 C          0.1558369752       -1.8023303802        1.1449717142
 C         -0.1693011399       -1.2170097895        2.3668413236
 C          0.7940522220       -0.5871295318        3.1295524713
 C          2.1052604424       -0.5297000623        2.6901857997
 C          2.4423609168       -1.1128992315        1.4750546719
 C          1.4712383075       -1.7489901549        0.7114686267
 H          1.7567490256       -2.1663273915       -0.2393469070
 N          3.7763807916       -1.1011862894        1.0270020323
 S          4.1870834621       -0.4949476303       -0.4781278430
 O          3.4698476684       -1.1999727081       -1.5072316340
 O          5.6306869400       -0.5944251616       -0.5238441036
 C          3.7233390772        1.2274189561       -0.4254370810
 C          4.7162365570        2.1714731968       -0.2436344835
 C          4.3644885720        3.5077791356       -0.1484203337
 C          3.0292828296        3.8754448392       -0.2247902722
 C          2.0464635886        2.9143490548       -0.4014549948
 C          2.3897023509        1.5744401342       -0.5039627249
 H          1.6341471217        0.8177476120       -0.6416046149
 H          1.0050023774        3.1892120433       -0.4588462321
 H          2.7528140890        4.9152870958       -0.1470232040
 H          5.1289579327        4.2558657258       -0.0123874166
 H          5.7404217293        1.8388560269       -0.1904703107
 H          4.4290759654       -0.7440493190        1.7109505341
 H          2.8617746905       -0.0389362702        3.2838970623
 H          0.5239590075       -0.1350097692        4.0720576949
 H         -1.1957393748       -1.2601849860        2.7069251080
 H         -1.4458104278       -3.1901956841        1.0378367484
 C         -0.4213771317       -3.2950870462       -0.8119676931
 C         -1.3003731002       -3.6256328987       -1.9802465669
 C         -0.1439218537       -2.6895687082       -2.1532609515
 H          0.7252155446       -3.0284140397       -2.6985475460
 H         -0.3450241798       -1.6378309779       -2.2796676671
 H         -1.2336190627       -4.6147542429       -2.4078453348
 H         -2.2991531538       -3.2134134078       -1.9886820121
 H          0.2544565851       -4.0808896615       -0.4867809118
