  62
        -98.93898742
 C         -2.6944744699       -1.0063083903        0.2788376896
 C         -2.5007136599       -0.2068699800       -0.8734983702
 C         -3.0176512000        1.1699510399       -0.8009221700
 C         -3.6489910001        1.5834879997        0.3110266800
 C         -4.2684555502        2.9316560896        0.5776887703
 C         -3.4284062403        4.1678824697        0.2175412805
 C         -1.9062021903        3.9726682298        0.2905916506
 H         -1.4709166903        4.7866956897        0.8738735508
 H         -1.6646149902        3.0421355197        0.8082608204
 C         -1.2344936402        3.9762567901       -1.0852534494
 H         -1.6677463002        4.7830159102       -1.6812549692
 H         -0.1715781602        4.1960768401       -0.9547462793
 C         -1.3214940001        2.6679681902       -1.8720451896
 H         -0.6528767600        1.9250329902       -1.4255767597
 H         -0.9435257700        2.8597305904       -2.8794500096
 C         -2.7240198100        2.0475148801       -1.9823537798
 H         -3.4832384700        2.8152476601       -2.1130836497
 H         -2.7302341699        1.3926886703       -2.8578387400
 H         -3.6887891602        4.5043164999       -0.7851028994
 H         -3.7233724204        4.9633373595        0.9035477507
 H         -5.2235075302        2.9812145596        0.0477818402
 H         -4.4902971303        2.9369492293        1.6472493602
 O         -3.8338858101        0.7708831194        1.3899605899
 C         -3.3386777600       -0.5228855105        1.4147522496
 O         -3.5286351601       -1.1268076808        2.4910557695
 H         -0.4589527800       -0.7310511204        1.5445988098
 C          0.0812201600       -1.3582940102        0.8438856997
 C         -0.6175462299       -2.3167743001        0.1194375495
 C          0.0887929702       -3.1149084799       -0.7696177107
 C          1.4510246402       -2.9348399398       -0.9421249005
 C          2.1362871701       -1.9637233099       -0.2356684903
 C          1.4410655100       -1.1685603301        0.6661567398
 N          2.1293654299       -0.1687667802        1.3868846900
 S          2.8055338699        1.0615258500        0.4528064803
 O          2.8740396998        2.2113095599        1.3295249105
 O          2.0887496300        1.2390743202       -0.7878387897
 C          4.4541651400        0.4702960102        0.1359292003
 C          4.8608308601        0.2180893905       -1.1593888797
 C          6.1462971301       -0.2537110294       -1.3770051698
 C          6.9962614001       -0.4634035096       -0.3016965797
 C          6.5727964100       -0.2022190498        0.9931591303
 C          5.2896054699        0.2700108300        1.2174979403
 H          4.9205437098        0.4901931198        2.2053038903
 H          7.2366992799       -0.3660278100        1.8266310303
 H          7.9949196901       -0.8325395595       -0.4739716098
 H          6.4774296002       -0.4570755592       -2.3826817498
 H          4.1621098801        0.3905134406       -1.9626866897
 H          1.5652992699        0.2441546396        2.1169939001
 H          3.1942357001       -1.8128565998       -0.3762961802
 H          1.9853961803       -3.5565678596       -1.6440470706
 H         -0.4298182797       -3.8678044698       -1.3399787608
 C         -2.1104558399       -2.4072656903        0.3302729394
 H         -2.2935113199       -2.7777788505        1.3497019093
 C         -2.8116397098       -3.3176661901       -0.6548485709
 C         -2.8981957297       -4.7899076602       -0.3896038511
 C         -4.1204062097       -3.9324141003       -0.2628775911
 H         -4.8939113397       -4.0186546002       -1.0110329411
 H         -4.4939615998       -3.7117421805        0.7267522390
 H         -2.8362488096       -5.4692498500       -1.2261913713
 H         -2.4456348197       -5.1620575203        0.5170259688
 H         -2.7019285797       -2.9833616199       -1.6798807308
 O         -1.9269656498       -0.6197471198       -1.9135977903
