  62
        -98.94031668
 C          2.5463672672       -1.0677671936        0.2534258206
 C          2.4079560341        0.3234543353        0.0314536937
 C          3.5845556582        0.9957239069       -0.5346907134
 C          4.6825968987        0.2811860967       -0.8413340828
 C          5.9493730171        0.8190241638       -1.4498866556
 C          6.9270103125        1.4180709854       -0.4295698586
 C          6.5065569365        2.7646141109        0.1605665236
 H          6.2660774827        3.4551996228       -0.6483394865
 H          7.3738479896        3.1683040159        0.6867210264
 C          5.3276479960        2.6859714250        1.1405115677
 H          5.5538576522        3.2779484648        2.0301928893
 H          5.1950099079        1.6524865004        1.4685719165
 C          4.0014486212        3.2002417965        0.5801065219
 H          4.0819626820        4.2689340301        0.3691951970
 H          3.2310328405        3.0647810065        1.3433845540
 C          3.5341808844        2.4852660221       -0.6947345690
 H          4.1396110128        2.7982372753       -1.5452395544
 H          2.4942156745        2.7630242428       -0.8847730633
 H          7.8853730948        1.5510794261       -0.9367091547
 H          7.0751057286        0.6965576792        0.3771449143
 H          6.4391978107       -0.0239796039       -1.9420362259
 H          5.7047381315        1.5671297888       -2.2044817568
 O          4.7610517042       -1.0621341028       -0.6451069002
 C          3.7077720417       -1.7638170763       -0.0821028370
 O          3.9208804826       -2.9852084191        0.0592828508
 H         -1.1671221264       -0.9522600522        1.3519341193
 C         -1.0280233772       -1.2822881158        0.3344790579
 C          0.2025352538       -1.7701145173       -0.0707531771
 C          0.3534524743       -2.1806445244       -1.3932620536
 C         -0.6993534850       -2.0973314005       -2.2828058453
 C         -1.9282062298       -1.6066376742       -1.8750538075
 C         -2.0896989300       -1.1944305715       -0.5603633135
 N         -3.3389625187       -0.7210278056       -0.1175586718
 S         -4.2416147654        0.2733609885       -1.1406315989
 O         -4.8393238934       -0.5462124400       -2.1653147089
 O         -3.4419975742        1.3841890856       -1.6072716037
 C         -5.5009899126        0.8357041795       -0.0123766741
 C         -5.3466951189        2.0520293106        0.6250949877
 C         -6.3194308184        2.4668075600        1.5212998518
 C         -7.4214426823        1.6611503410        1.7656806443
 C         -7.5622353161        0.4428521706        1.1177545946
 C         -6.5942735132        0.0227303604        0.2196098514
 H         -6.6650843113       -0.9107826939       -0.3135392383
 H         -8.4217904895       -0.1790437796        1.3089049166
 H         -8.1765231706        1.9866795285        2.4636757199
 H         -6.2139905514        3.4147207981        2.0240916313
 H         -4.4776132614        2.6492426340        0.3986668860
 H         -3.2774196054       -0.3108279817        0.8048275306
 H         -2.7540538784       -1.5276860331       -2.5630403786
 H         -0.5653984223       -2.4147871893       -3.3063898148
 H          1.3149822737       -2.5589417062       -1.7146463018
 C          1.3967140680       -1.8620908137        0.8485333558
 H          1.7289019917       -2.9099500255        0.8661220936
 C          1.1243392746       -1.4125099434        2.2682076999
 C          0.4612701999       -2.3439231134        3.2367735444
 C          1.9172484140       -2.0212699927        3.3839660831
 H          2.2265726090       -1.3878028276        4.2018015333
 H          2.6411777434       -2.7792037230        3.1218437683
 H          0.1937111297       -3.3267248629        2.8794929065
 H         -0.2279129459       -1.9338337359        3.9594783174
 H          0.9006833294       -0.3541106986        2.3364073348
 O          1.3618593119        0.9736571706        0.2926263135
