  62
        -98.93417522
 C          1.9955327119        0.9581756514        0.2524399761
 C          2.2934276887       -0.4160058243        0.0872835065
 C          3.6735854399       -0.8286624800        0.4165143430
 C          4.5435747289        0.0833112735        0.8805360834
 C          5.9964820323       -0.1195283713        1.2095973039
 C          6.8800377607        0.2401762492        0.0030687804
 C          7.1089552327       -0.8981078169       -0.9907411205
 H          7.6285837805       -0.4760219466       -1.8540735865
 H          7.7722621831       -1.6393991568       -0.5401211397
 C          5.8432877790       -1.6085153336       -1.4781218094
 H          6.0829974556       -2.1119227137       -2.4168427126
 H          5.0681116015       -0.8717470287       -1.6965649164
 C          5.3119411867       -2.6481565785       -0.4798692792
 H          5.1490124400       -3.5954144628       -0.9981879020
 H          6.0750723165       -2.8372790703        0.2750523007
 C          3.9858707248       -2.2852809343        0.2071634196
 H          3.1503778723       -2.6651434772       -0.3895353583
 H          3.9330744518       -2.7960323770        1.1744938087
 H          7.8544992012        0.5705965815        0.3683174812
 H          6.4186535773        1.0888917767       -0.5085684342
 H          6.2296819084        0.5653047240        2.0276109483
 H          6.1785444202       -1.1373340667        1.5416381261
 O          4.2019454029        1.3872204689        1.0700278273
 C          2.9368417627        1.8536952592        0.7689309307
 O          2.7703104390        3.0667989756        1.0052461127
 H         -1.0780918043       -0.2676126345       -1.2338715977
 C         -1.2400877010       -0.1747540948       -0.1713679469
 C         -0.4522602475        0.6912325176        0.5703987924
 C         -0.6586359281        0.7690260048        1.9441218636
 C         -1.6238420607       -0.0058565627        2.5599966568
 C         -2.3997969706       -0.8788505356        1.8184916032
 C         -2.1972734616       -0.9675769955        0.4477796930
 N         -2.9767108975       -1.8622492774       -0.3097463424
 S         -4.6397245324       -1.7425484209       -0.1794117986
 O         -5.0673473999       -2.2897433305        1.0833613327
 O         -5.1657538712       -2.3840178148       -1.3631434603
 C         -4.9592518355        0.0112929618       -0.2251433928
 C         -4.8828153219        0.6539268948       -1.4451379582
 C         -5.0544103279        2.0276124832       -1.4916461543
 C         -5.2882275082        2.7332033051       -0.3209382692
 C         -5.3617136928        2.0734479277        0.8958627126
 C         -5.1948837518        0.6986033318        0.9480070776
 H         -5.2500045590        0.1483252055        1.8725756002
 H         -5.5449466984        2.6247791809        1.8040110670
 H         -5.4153645197        3.8036655432       -0.3582965643
 H         -5.0013348990        2.5434590078       -2.4370308612
 H         -4.7066373136        0.0692529126       -2.3338321456
 H         -2.6939222631       -1.9212024510       -1.2769393794
 H         -3.1497659995       -1.5003615114        2.2806315959
 H         -1.7700411810        0.0649816943        3.6272548964
 H         -0.0431585849        1.4412930146        2.5265162580
 C          0.6249923362        1.5396224552       -0.0564747604
 H          0.6177617339        2.5183742763        0.4492149464
 C          0.3789616043        1.8169027302       -1.5326055563
 C          1.4846512433        2.3352010296       -2.4019671648
 C          0.9321345177        0.9620104830       -2.6312378177
 H          0.3207272744        0.7981983848       -3.5070837243
 H          1.5336449729        0.1102414024       -2.3564675470
 H          2.4651314825        2.4253080127       -1.9567786556
 H          1.2583011776        3.1103670990       -3.1183397896
 H         -0.6052028650        2.2444970192       -1.6992286247
 O          1.4697494365       -1.2718609395       -0.3271378819
