  62
        -98.94163097
 C         -1.7138890684       -0.4632721911       -0.3058274082
 C         -2.8212480506       -1.2847655496        0.0296325804
 C         -4.1496574787       -0.7620714688       -0.3143866907
 C         -4.2472752568        0.4451721534       -0.8994891252
 C         -5.5377036955        1.1238868319       -1.2549866220
 C         -6.0335915227        2.0116828618       -0.1049673546
 C         -6.0448620513        1.3131759815        1.2548039356
 H         -5.0165336966        1.0918043178        1.5496685315
 H         -6.4410263180        2.0250555351        1.9821884494
 C         -6.8739555778        0.0219720449        1.2989565328
 H         -7.4786195261        0.0252243437        2.2083240713
 H         -7.5619254684       -0.0055315619        0.4531613474
 C         -6.0450404118       -1.2635977565        1.3199021375
 H         -5.2916664965       -1.2009788538        2.1090902596
 H         -6.7114306521       -2.0936165475        1.5691504512
 C         -5.3384600028       -1.6237034771        0.0069621349
 H         -4.9522579465       -2.6422975253        0.1070920344
 H         -6.0580887107       -1.6081991378       -0.8141797311
 H         -7.0399496936        2.3586982137       -0.3464403705
 H         -5.3804140756        2.8847386200       -0.0359155008
 H         -5.3679295048        1.7463074036       -2.1352448298
 H         -6.2849232037        0.3695517769       -1.4941791504
 O         -3.1679084841        1.2138321157       -1.1888616014
 C         -1.8754769101        0.7932899701       -0.8916916030
 O         -0.9988827161        1.6228895076       -1.1954410271
 H          1.9300861029        0.3393224048       -0.8462312326
 C          1.6199383532        0.6366331370        0.1407263548
 C          0.4851614203        0.0909700680        0.7180946489
 C          0.0845552638        0.5538157862        1.9693639310
 C          0.7964417871        1.5428610820        2.6186462983
 C          1.9385231250        2.0752900481        2.0456479000
 C          2.3458476369        1.6215304076        0.7976619620
 N          3.4987559184        2.1372376920        0.1912972827
 S          4.4670049455        1.1537036701       -0.7434865431
 O          5.7760506562        1.7689798982       -0.6737575909
 O          3.9211082312        0.9994551112       -2.0680879946
 C          4.4925384004       -0.4239614890        0.0923800886
 C          4.1556462969       -1.5678905278       -0.6014761407
 C          4.1736031566       -2.7856588113        0.0601026996
 C          4.5244993864       -2.8373690239        1.3999557180
 C          4.8672039491       -1.6800782172        2.0823481438
 C          4.8536577595       -0.4609153325        1.4247850086
 H          5.1224841309        0.4539716984        1.9268799575
 H          5.1424975157       -1.7245138345        3.1236739160
 H          4.5317527109       -3.7855028819        1.9140087830
 H          3.9097062551       -3.6869744233       -0.4703069430
 H          3.8825496199       -1.4809915881       -1.6412102479
 H          4.0313477626        2.7857824862        0.7509448740
 H          2.4994719011        2.8461911712        2.5515936770
 H          0.4671173294        1.8982957353        3.5833734160
 H         -0.8046896503        0.1341894653        2.4199172452
 C         -0.3312006809       -0.9825829747        0.0461675616
 H         -0.5218712586       -1.7758930740        0.7884643343
 C          0.4032891161       -1.6439645335       -1.1098636946
 C         -0.3391325560       -2.3576908457       -2.1982618750
 C          0.3897613880       -1.0838936680       -2.4992086925
 H          1.2995593935       -1.1285135078       -3.0810470851
 H         -0.1845671000       -0.1871620034       -2.6730121178
 H          0.0656953136       -3.2852298742       -2.5739505457
 H         -1.4187270598       -2.3316119587       -2.1692697015
 H          1.3322058784       -2.1008914589       -0.7815348406
 O         -2.7024829974       -2.4033153790        0.5965156263
