  62
        -98.94280348
 C          1.8132495378        0.8838879057        0.2597810246
 C          3.1657617702        1.2193098220        0.5246333000
 C          4.0922104798        0.0928055611        0.6985316784
 C          3.6134663813       -1.1634974177        0.6525996516
 C          4.4499631345       -2.4048752440        0.7573762647
 C          4.9073596511       -2.8838852236       -0.6275772028
 C          5.5210180022       -1.7818462876       -1.4913436916
 H          5.8339639594       -2.2415474765       -2.4313618999
 H          4.7491974317       -1.0481819425       -1.7359021490
 C          6.7170604228       -1.0640112033       -0.8503336649
 H          7.1182914123       -1.6678424689       -0.0355893346
 H          7.5064482748       -0.9632524607       -1.5981579053
 C          6.4110465277        0.3433280982       -0.3340657214
 H          5.9245716034        0.9248504745       -1.1216750745
 H          7.3600768600        0.8353397659       -0.1049741149
 C          5.5415872853        0.4165048036        0.9275447488
 H          5.5645156485        1.4492579200        1.2878798843
 H          5.9633970470       -0.2270332295        1.7022406801
 H          4.0427213613       -3.2910093599       -1.1568868299
 H          5.6326139149       -3.6883263250       -0.4925493761
 H          5.3142611071       -2.2021592191        1.3868367529
 H          3.8481438383       -3.1874234022        1.2223540605
 O          2.3011299468       -1.4458604017        0.4602553226
 C          1.3678327490       -0.4379703286        0.2501326274
 O          0.2082465473       -0.8565948750        0.0835068069
 O          3.5768300803        2.4068004066        0.6162494960
 C          0.8368578590        2.0238469796        0.0365701455
 C         -0.4296964775        1.8065688896        0.8259333828
 C         -0.3432512579        1.7265315093        2.2141725636
 C         -1.4737897341        1.5354811705        2.9832236407
 C         -2.7171440453        1.4253859309        2.3849067091
 C         -2.8169956668        1.5096987183        1.0017202949
 C         -1.6769179345        1.7022752233        0.2309190290
 H         -1.7817656833        1.7401058841       -0.8399542711
 N         -4.0757812998        1.4536388756        0.3789047514
 S         -4.4014129121        0.4689183457       -0.9317347522
 O         -3.4824218024        0.7487687706       -2.0037443909
 O         -5.8011372115        0.7039413391       -1.2149076804
 C         -4.2028535884       -1.2007165291       -0.3343150832
 C         -5.3368796298       -1.9531424644       -0.0930472938
 C         -5.1988690541       -3.2376177500        0.4062828216
 C         -3.9334394961       -3.7439882135        0.6633830511
 C         -2.8073672533       -2.9731456118        0.4211411365
 C         -2.9358980273       -1.6876449204       -0.0832758428
 H         -2.0640596876       -1.0816425356       -0.2714741896
 H         -1.8176001641       -3.3525089295        0.6202735051
 H         -3.8231564999       -4.7435373070        1.0539263192
 H         -6.0745471187       -3.8378877236        0.5943886119
 H         -6.2993149872       -1.5183917179       -0.3097570073
 H         -4.8498149922        1.4113265614        1.0266820418
 H         -3.6031831534        1.2790636036        2.9840479818
 H         -1.3891026429        1.4705559240        4.0575693261
 H          0.6289101523        1.8112028111        2.6811955575
 H          1.3469217369        2.9071058133        0.4578505020
 C          0.5776618450        2.3333122219       -1.4303492076
 C          1.6160171192        2.0692510789       -2.4782061728
 C          0.3577893339        1.2570798848       -2.4488759043
 H         -0.3882375371        1.4190669230       -3.2135348250
 H          0.4127619749        0.2329575485       -2.1142060460
 H          1.7455127380        2.7950936635       -3.2668811363
 H          2.5356185190        1.5964024755       -2.1648076269
 H         -0.0046302512        3.2416979531       -1.5552321983
