  62
        -98.94581772
 C         -1.9245666881       -1.2710112158        0.1415509536
 C         -0.7834354724       -1.3875105928        0.9733718130
 C          0.1726614761       -2.4438699821        0.6085423939
 C         -0.0304389109       -3.1714817464       -0.5030663724
 C          0.9037944722       -4.2245025924       -1.0235813056
 C          1.9277459851       -3.6355334326       -2.0035286797
 C          2.6446638893       -2.3863186211       -1.4886097075
 H          3.3777330143       -2.1020030192       -2.2478554518
 H          1.9317994344       -1.5601863975       -1.4207726810
 C          3.3528257532       -2.5671771652       -0.1387419559
 H          3.5087199047       -3.6288257185        0.0581882613
 H          4.3371185707       -2.0982128470       -0.1984009288
 C          2.6280682067       -1.9277474365        1.0462497134
 H          2.3666376894       -0.8975112995        0.7942032089
 H          3.3187944043       -1.8950329061        1.8928851747
 C          1.3549337548       -2.6410807428        1.5151030724
 H          1.5559494076       -3.7045859823        1.6591371538
 H          1.0694992114       -2.2084183197        2.4782449219
 H          2.6636943284       -4.4085821163       -2.2350590210
 H          1.4100243236       -3.3706407403       -2.9286271254
 H          1.4169948380       -4.6924550285       -0.1854792628
 H          0.3125409558       -4.9803617975       -1.5439075102
 O         -1.1120750953       -3.0023468017       -1.3060353759
 C         -2.0764668257       -2.0578878011       -1.0028068266
 O         -3.0249270988       -2.0187731949       -1.8153909585
 H         -0.5898751959        0.9195679915        0.1411344265
 C         -1.3749575126        1.5387851690       -0.2578784872
 C         -2.6871002559        1.0945855842       -0.2175448036
 C         -3.6835134116        1.9144122063       -0.7358688200
 C         -3.3658464269        3.1394311577       -1.2939763076
 C         -2.0497667461        3.5591492761       -1.3697517648
 C         -1.0464019768        2.7476278884       -0.8527882447
 N          0.2987964290        3.1412321286       -0.9100167365
 S          1.5381729616        2.0486931007       -1.1906400927
 O          2.4522297131        2.7347450656       -2.0821627394
 O          1.0384139729        0.7784363569       -1.6623534232
 C          2.3508750117        1.8503875435        0.3829611634
 C          1.6753103463        2.0456305719        1.5697608532
 C          2.3532737905        1.8482768457        2.7634529621
 C          3.6851055055        1.4665409178        2.7523315189
 C          4.3528692808        1.2815495275        1.5512986598
 C          3.6806108839        1.4727240747        0.3556105994
 H          4.1579585932        1.3394706677       -0.6019507445
 H          5.3893329099        0.9852484511        1.5420175365
 H          4.2050427354        1.3120404403        3.6846043526
 H          1.8313121633        1.9879000546        3.6963157219
 H          0.6380267300        2.3367924242        1.5597888776
 H          0.4671516781        4.0033516269       -1.4071025584
 H         -1.7977004515        4.5027245099       -1.8294328334
 H         -4.1480808080        3.7667494353       -1.6935770641
 H         -4.7096304105        1.5797864680       -0.7157441745
 C         -3.0280446139       -0.2538237663        0.3761177007
 H         -3.9063230615       -0.6358635754       -0.1639047319
 C         -3.3971771258       -0.1015110470        1.8406821488
 C         -4.7989309754        0.2618960369        2.2225597481
 C         -4.2857958151       -1.1217985709        2.4837110733
 H         -4.0769511586       -1.4178978427        3.5004528692
 H         -4.6503475344       -1.9266631086        1.8614818871
 H         -5.5228509023        0.3869746813        1.4319375840
 H         -4.9467712498        0.9228390912        3.0626104371
 H         -2.5899042863        0.2986058728        2.4398510386
 O         -0.5499320116       -0.6594225203        1.9744370822
