  62
        -98.94446006
 C         -1.8054542199       -0.0155659789       -0.4670456099
 C         -2.9918448499        0.2379354112       -1.1965951698
 C         -4.2360046099       -0.2317043588       -0.5773520298
 C         -4.1905371198       -0.8842115089        0.5985114002
 C         -5.3699263798       -1.4515876190        1.3412513202
 C         -6.1054594697       -0.4297576590        2.2190623804
 C         -6.9392940397        0.6007482711        1.4566668005
 H         -7.6030404398        0.0859512811        0.7613493805
 H         -7.5676225197        1.1100562610        2.1900677506
 C         -6.1120441097        1.6502684011        0.7012229905
 H         -5.0888422097        1.6516887110        1.0840051705
 H         -6.5251649497        2.6437849911        0.8893258706
 C         -6.0725028699        1.4554472412       -0.8144877195
 H         -7.0759416799        1.5823222013       -1.2266873394
 H         -5.4317094699        2.2303813312       -1.2425411295
 C         -5.5298693499        0.0917138113       -1.2617873396
 H         -6.2671828499       -0.6877593687       -1.0710929197
 H         -5.3353646600        0.1354733513       -2.3361842097
 H         -6.7720485397       -0.9884073891        2.8801932604
 H         -5.3720786896        0.0844153909        2.8446418203
 H         -4.9788715998       -2.2416163890        1.9861019101
 H         -6.0702124898       -1.8958384189        0.6333020402
 O         -3.0263717998       -1.1286091090        1.2579112501
 C         -1.8094777098       -0.6875302090        0.7550586500
 O         -0.8299979698       -0.9572423391        1.4758694499
 O         -3.0081307500        0.8192287113       -2.3144988198
 C         -0.4801562999        0.4521726111       -1.0403886500
 C          0.4509950701       -0.7201084789       -1.2231033701
 C         -0.0087620100       -1.8345244388       -1.9214739402
 C          0.8051572399       -2.9325350988       -2.1154389003
 C          2.0960752700       -2.9441062389       -1.6163026804
 C          2.5697526500       -1.8345576390       -0.9278082404
 C          1.7515862401       -0.7271519190       -0.7441295502
 H          2.1370414101        0.1194443610       -0.2019734702
 N          3.8899244701       -1.8018090491       -0.4586239505
 S          4.2905233602       -1.0539952892        0.9835448796
 O          5.5948269702       -1.5970820593        1.3045374894
 O          3.2724408603       -1.2177795593        1.9930155696
 C          4.4846429102        0.6637778908        0.5589733197
 C          3.9493159003        1.6299359908        1.3870539098
 C          4.1484528503        2.9660267308        1.0745358299
 C          4.8753802202        3.3097758109       -0.0551660401
 C          5.4056933902        2.3265386809       -0.8767202002
 C          5.2142864601        0.9895926009       -0.5674083703
 H          5.6149127701        0.1981099809       -1.1780422604
 H          5.9682616901        2.5983631410       -1.7551882203
 H          5.0263189403        4.3501898909       -0.2961831700
 H          3.7363932204        3.7312285108        1.7135910300
 H          3.3795656404        1.3168019507        2.2482268098
 H          4.4075093700       -2.6592106291       -0.5859590106
 H          2.7318547399       -3.8048127389       -1.7586559406
 H          0.4318164199       -3.7907552888       -2.6538774304
 H         -1.0200698701       -1.8281625488       -2.3050486901
 H         -0.7235137700        0.8520629512       -2.0364673799
 C          0.1030998102        1.5688603810       -0.2011064499
 C          0.9751342402        2.6067655110       -0.8404896899
 C         -0.4109875598        2.9627279210       -0.3964294098
 H         -0.5313384897        3.5933489410        0.4715884103
 H         -1.1710123498        3.1082379611       -1.1502076497
 H          1.8118354302        2.9947276910       -0.2798438699
 H          1.1586473801        2.5159298411       -1.9002166599
 H          0.3304539202        1.2552075909        0.8123879600
