  62
        -98.93910922
 C          2.1894207096        1.2265538469        0.2257743547
 C          1.8781103881        0.2421586235       -0.7421148245
 C          2.7130643514       -0.9741785378       -0.7246712237
 C          3.7008558095       -1.0872209718        0.1797409983
 C          4.7118503638       -2.1958071688        0.3411134235
 C          4.2202275544       -3.6412090946        0.1937653878
 C          2.7975772505       -3.8960159444        0.7123854914
 H          2.8130743797       -4.7529333540        1.3885430866
 H          2.4501805267       -3.0358304510        1.2881367489
 C          1.7989157088       -4.1990679855       -0.4070750917
 H          2.2649088422       -4.8868585816       -1.1158330130
 H          0.9332852778       -4.7094853066        0.0230730869
 C          1.2737000598       -2.9793075327       -1.1623427353
 H          0.6280041635       -2.3940636286       -0.5019342572
 H          0.6495397025       -3.3377250401       -1.9842043112
 C          2.3459277742       -2.0321256471       -1.7260139806
 H          3.2175722119       -2.5839324464       -2.0685888697
 H          1.9136847753       -1.5006397412       -2.5779670822
 H          4.2773402358       -3.9430763128       -0.8509193855
 H          4.9249811191       -4.2699182413        0.7406807638
 H          5.5212731507       -2.0196668430       -0.3736280657
 H          5.1311435564       -2.0533423252        1.3403077428
 O          3.9510502833       -0.1191331963        1.1077805969
 C          3.2105392452        1.0500135786        1.1569578045
 O          3.5493891703        1.8364703173        2.0654113016
 H          0.1829995978        0.5744745346        1.6195587345
 C         -0.5308769131        1.2434999523        1.1538725742
 C         -0.0669571650        2.3111305185        0.3973240723
 C         -1.0007864971        3.1576651487       -0.1890966551
 C         -2.3566917113        2.9392351666       -0.0176045707
 C         -2.8137557493        1.8676203342        0.7265569941
 C         -1.8891626532        1.0079719262        1.3061265373
 N         -2.3432846356       -0.1082508827        2.0276132363
 S         -3.6168045239       -0.9864872490        1.3849154089
 O         -4.8643056611       -0.4022062634        1.8137939858
 O         -3.3885116519       -2.3494438805        1.8145277414
 C         -3.4791154145       -0.8536702113       -0.3898668467
 C         -2.2519510685       -1.0753079605       -0.9804748158
 C         -2.1315501282       -0.9481678704       -2.3537835327
 C         -3.2427973318       -0.6174524872       -3.1136378122
 C         -4.4734991324       -0.4123359432       -2.5089011896
 C         -4.5947812468       -0.5243034792       -1.1331335152
 H         -5.5274022354       -0.3542399992       -0.6198683589
 H         -5.3358048016       -0.1560286292       -3.1031555723
 H         -3.1457025234       -0.5152778405       -4.1829637991
 H         -1.1632494827       -1.0817960904       -2.8082289011
 H         -1.3963791372       -1.3241376218       -0.3737457905
 H         -1.6071501799       -0.7175668208        2.3520295577
 H         -3.8661056894        1.6817396398        0.8695700940
 H         -3.0681885508        3.6095310729       -0.4744960100
 H         -0.6647662999        3.9923369201       -0.7817675113
 C          1.4203784477        2.5333293665        0.2608450218
 H          1.7660248223        3.0632530790        1.1615104200
 C          1.7803327825        3.3632744456       -0.9570905386
 C          1.8653063706        4.8565519235       -0.8665156042
 C          3.1157796273        4.0414396394       -0.9960720909
 H          3.6569072676        4.0656094142       -1.9300325477
 H          3.7500833673        3.9327234473       -0.1278213357
 H          1.5498502515        5.4437959948       -1.7158493433
 H          1.6595294493        5.3143922598        0.0893773587
 H          1.4148234899        2.9248446266       -1.8785732956
 O          0.9568856646        0.3685676602       -1.5874251077
