  62
        -98.94526055
 C         -1.4892813776       -0.8175435925       -0.5020594222
 C         -2.6239662871       -0.9949695555        0.3326099187
 C         -3.3415289787        0.2191120159        0.7308612369
 C         -2.8856015182        1.4200739211        0.3319420152
 C         -3.4776099714        2.7571857020        0.6870982067
 C         -4.6499777414        3.1819504195       -0.2078547616
 C         -5.9536685955        2.4168364170        0.0232501379
 H         -6.2021137713        2.4387732346        1.0847796703
 H         -6.7403391772        2.9570525376       -0.5071102404
 C         -5.9311167123        0.9643156405       -0.4727625243
 H         -6.8466078736        0.7558523730       -1.0308527814
 H         -5.0961115752        0.8289005738       -1.1638844939
 C         -5.8284030538       -0.0829918136        0.6360767315
 H         -6.7229609248       -0.0438926013        1.2615290696
 H         -5.7849497717       -1.0711690189        0.1712983366
 C         -4.5961196458        0.0695200525        1.5376601110
 H         -4.7210485414        0.9216137231        2.2059748795
 H         -4.4965269784       -0.8362057797        2.1410286538
 H         -4.3466217536        3.0791782131       -1.2522110083
 H         -4.8363296892        4.2415710242       -0.0182643507
 H         -3.7971465867        2.7487401601        1.7298267301
 H         -2.6742057393        3.4893171024        0.5781145754
 O         -1.7873967331        1.5543624273       -0.4526102492
 C         -1.0651313107        0.4528913714       -0.8912599265
 O         -0.1000752885        0.7605175855       -1.6181216516
 H          1.3510296050       -0.5022700514       -0.1974209735
 C          1.3434863019       -1.4228161263        0.3613692457
 C          0.3457868775       -2.3595841574        0.1264178442
 C          0.3464730999       -3.5403348640        0.8585117056
 C          1.3162471803       -3.7700064930        1.8182655599
 C          2.2844639055       -2.8184229936        2.0774297360
 C          2.2935855428       -1.6318016934        1.3494296077
 N          3.2701322270       -0.6609742173        1.6025371376
 S          2.9892208606        0.9880673185        1.4726394688
 O          3.7998695806        1.5657759779        2.5272722790
 O          1.5811516541        1.2998479686        1.5125866279
 C          3.7364179588        1.4063723020       -0.0886173105
 C          5.1178496603        1.4582916574       -0.1254889402
 C          5.7492262375        1.7635906473       -1.3190254114
 C          4.9920560526        2.0106197911       -2.4548848349
 C          3.6086974999        1.9560296361       -2.4009178223
 C          2.9687544171        1.6517293769       -1.2078012715
 H          1.8921850215        1.5982223916       -1.1496460753
 H          3.0133214296        2.1455976461       -3.2799747797
 H          5.4814096111        2.2486478516       -3.3862961313
 H          6.8255289745        1.8086436897       -1.3615737645
 H          5.6655890550        1.2740948308        0.7837503705
 H          3.8744915706       -0.8671494829        2.3841660234
 H          3.0274728940       -2.9847370147        2.8427538650
 H          1.3075526652       -4.6902702276        2.3824659776
 H         -0.4320847204       -4.2690543347        0.6877788648
 C         -0.7390343318       -2.0818559987       -0.8885013509
 H         -1.4788674629       -2.8907319127       -0.8093110299
 C         -0.1787679461       -2.0836128408       -2.2958641308
 C          0.0874272857       -3.3968832623       -2.9667188383
 C         -1.0465224579       -2.5339373077       -3.4309493284
 H         -0.9578962778       -2.0245395338       -4.3785397090
 H         -2.0541419189       -2.8456837267       -3.1966573919
 H          0.9587485604       -3.4841083266       -3.5970591581
 H         -0.1525375895       -4.2963458994       -2.4202758238
 H          0.5082663400       -1.2708614335       -2.4889935643
 O         -3.0209238536       -2.1258653233        0.7243371089
