  62
        -98.94562934
 C         -1.4259479342       -1.5799662122       -0.1003034808
 C         -2.6659578011       -1.1049950582        0.3931078589
 C         -3.1862152304        0.1170350628       -0.2285911609
 C         -2.4753970238        0.7271646482       -1.1931752394
 C         -2.8494557218        2.0011091752       -1.9004144986
 C         -2.4600128178        3.2651164404       -1.1206154770
 C         -3.3456035787        3.5797521826        0.0857881907
 H         -3.1240185242        4.6060272049        0.3857786587
 H         -4.3949353298        3.5444603344       -0.2107005567
 C         -3.1146704752        2.6586213148        1.2920582907
 H         -2.1454996970        2.1626652305        1.1910536824
 H         -3.0610204289        3.2611797221        2.2024854680
 C         -4.2054912431        1.6094505878        1.5113651173
 H         -3.9096953917        0.9830766190        2.3570305680
 H         -5.1426493226        2.1071862794        1.7726989757
 C         -4.4616244759        0.6917722493        0.3092299303
 H         -4.9923507712        1.2356257286       -0.4721860696
 H         -5.0862275011       -0.1405546888        0.6440753344
 H         -1.4244540594        3.1682825019       -0.7826982472
 H         -2.5098956721        4.1083555874       -1.8138550668
 H         -3.9206183809        2.0123178083       -2.1043269091
 H         -2.3136647162        2.0015424590       -2.8522289185
 O         -1.2984795778        0.2322156570       -1.6544290561
 C         -0.7231107647       -0.9041384424       -1.0989831886
 O          0.3844482468       -1.1950582542       -1.5870938266
 O         -3.3027423255       -1.6713401594        1.3228079030
 C         -0.7856138284       -2.7615332425        0.6063652924
 C          0.6463747092       -2.4195497384        0.9408979083
 C          1.7208377259       -3.2759614544        0.7415373893
 C          3.0085230475       -2.8697536191        1.0493930869
 C          3.2562164077       -1.5979616336        1.5311916302
 C          2.1864410841       -0.7344138548        1.7354859732
 C          0.8971937629       -1.1610031995        1.4750776452
 H          0.0792064339       -0.4763454780        1.6475230977
 N          2.3762892482        0.5870194241        2.1935004894
 S          1.8442428154        1.8184848490        1.1902117811
 O          2.4089426099        3.0217010750        1.7692226198
 O          0.4088551392        1.7912243929        1.0770666335
 C          2.6093982432        1.5296860967       -0.3952726654
 C          1.8340431328        1.4857203397       -1.5332389414
 C          2.4478081580        1.2618168825       -2.7556404668
 C          3.8199965124        1.0850475319       -2.8174854174
 C          4.5895611958        1.1439402572       -1.6651772218
 C          3.9812994409        1.3707083591       -0.4424896870
 H          4.5555838701        1.4396224569        0.4673556836
 H          5.6584024862        1.0121143528       -1.7170801108
 H          4.2926255336        0.9027655790       -3.7698171742
 H          1.8453111897        1.2146165434       -3.6484335881
 H          0.7673474566        1.6116298524       -1.4475343837
 H          3.3208642198        0.7831578683        2.4946969253
 H          4.2636005283       -1.2737316098        1.7440958040
 H          3.8333056719       -3.5471472779        0.8890551543
 H          1.5563124963       -4.2566955510        0.3266254033
 H         -1.3440512603       -2.8446989248        1.5549320694
 C         -0.9443982151       -4.0966103364       -0.1062932206
 C         -2.0016733911       -4.2972616121       -1.1495830884
 C         -0.5564844405       -4.2791788120       -1.5421326271
 H         -0.0952234489       -5.2112015675       -1.8343048447
 H         -0.1759906893       -3.4157995892       -2.0643018763
 H         -2.5317613243       -5.2378963724       -1.1664549281
 H         -2.6137384152       -3.4464133664       -1.4123767159
 H         -0.7674716577       -4.9376004447        0.5570896598
