  62
        -98.93296352
 C          2.2653230714        0.9466148543        0.0682140607
 C          3.1050585476        0.3416997011        1.0397033054
 C          4.0442605096       -0.6780440468        0.5568447669
 C          4.0548775073       -1.0020961943       -0.7481025353
 C          4.9014751910       -2.0564163382       -1.4111316691
 C          6.4229766548       -1.8134298584       -1.4065025181
 C          7.1650716106       -2.4722422638       -0.2370782898
 H          6.5752698600       -3.3165095199        0.1219285114
 H          8.1072047913       -2.8825559466       -0.6062203122
 C          7.5089397370       -1.5523025683        0.9382271702
 H          7.7991740150       -2.1821649098        1.7818798450
 H          8.3743130046       -0.9412797116        0.6714312428
 C          6.3992796744       -0.6021292615        1.3888365442
 H          6.3086694342        0.2210319353        0.6760018545
 H          6.6981904308       -0.1550147867        2.3389371557
 C          5.0137580550       -1.2585831632        1.5447341584
 H          5.0835159597       -2.3385794345        1.4241125251
 H          4.6106565539       -1.0472467436        2.5370467208
 H          6.6204269522       -0.7419867857       -1.4292912515
 H          6.8116765438       -2.2330643095       -2.3357798245
 H          4.5514492083       -2.1015884436       -2.4445597469
 H          4.6877416036       -3.0206738915       -0.9442363468
 O          3.2253827344       -0.4090865619       -1.6481058856
 C          2.3208760965        0.5783295295       -1.2761771776
 O          1.6475939935        1.0147782622       -2.2297920620
 O          3.0682399397        0.6441802940        2.2619218486
 C          1.3110385884        2.0158681554        0.5701083609
 C         -0.0535562768        1.4478573464        0.8663340140
 C         -0.6882885277        1.7033929603        2.0759094564
 C         -1.9511727141        1.1963368718        2.3290893106
 C         -2.6045605159        0.4251723387        1.3847248420
 C         -1.9791340689        0.1641613612        0.1723907830
 C         -0.7134231777        0.6737738029       -0.0782717692
 H         -0.2367614733        0.4779296121       -1.0279277661
 N         -2.6314078168       -0.6249019990       -0.7932794116
 S         -4.1733726123       -0.1461274211       -1.2630444970
 O         -4.3509860322       -0.6772103781       -2.5965138731
 O         -4.3511818216        1.2791272731       -1.1073917005
 C         -5.2465405890       -1.0218571823       -0.1441135329
 C         -6.1393002565       -0.3245669506        0.6459537613
 C         -6.9667649357       -1.0311449514        1.5051203508
 C         -6.8874002235       -2.4143021159        1.5581194150
 C         -5.9875994736       -3.0998428261        0.7553046707
 C         -5.1586607617       -2.3997576869       -0.1065042808
 H         -4.4490558928       -2.8929981593       -0.7497683592
 H         -5.9287875909       -4.1754910214        0.7988360497
 H         -7.5308542662       -2.9617791086        2.2285990357
 H         -7.6676880117       -0.5003970073        2.1291394066
 H         -6.1619340497        0.7511525930        0.5742077753
 H         -2.0599560534       -0.8041989755       -1.6071450075
 H         -3.5875866103        0.0269803721        1.5758450100
 H         -2.4318869405        1.4020768627        3.2731437369
 H         -0.1808956124        2.2960532169        2.8228788082
 H          1.7442741494        2.3448434628        1.5278893286
 C          1.2519240612        3.2352862803       -0.3413601783
 C          0.0559038582        3.6105246263       -1.1593020053
 C          0.4220605745        4.4242107064        0.0435245206
 H          0.8318718283        5.4120541728       -0.1022101733
 H         -0.2073879809        4.3286484174        0.9153988461
 H          0.2327961113        4.0202990098       -2.1423069954
 H         -0.8246004246        2.9883947341       -1.1071774654
 H          2.2170986641        3.4448456202       -0.7921882994
