  62
        -98.93932740
 C          2.1185208231        0.9777322684        0.1003854259
 C          2.8019466977        0.2841329567        1.1243165366
 C          3.5247187224       -0.9349035074        0.7229229573
 C          3.4600870582       -1.3388719913       -0.5578408324
 C          4.1575018245       -2.5167086232       -1.1801987339
 C          5.4989562231       -2.0879397138       -1.7990153087
 C          6.6862900056       -2.1021679757       -0.8368557665
 H          6.9509570901       -3.1370126631       -0.6098987943
 H          7.5337053630       -1.6546308937       -1.3610511952
 C          6.4718307070       -1.3523278307        0.4805759559
 H          7.4539409470       -1.1147868481        0.8937981977
 H          5.9649846136       -0.4053120858        0.2867719896
 C          5.6819807823       -2.1660480963        1.5164945513
 H          5.6276607520       -3.2036926371        1.1875107818
 H          6.2253137632       -2.1697450972        2.4636221304
 C          4.2680753037       -1.6475022496        1.8200856807
 H          4.3139139101       -0.9224929653        2.6388524845
 H          3.6514335808       -2.4801264933        2.1758618178
 H          5.7296349514       -2.7562031365       -2.6310674566
 H          5.3702346311       -1.0842521296       -2.2122091216
 H          4.2950958868       -3.3119750721       -0.4534469971
 H          3.5046847777       -2.8781858673       -1.9777170021
 O          2.7563899066       -0.6618487665       -1.5067577063
 C          2.0714591872        0.5048721825       -1.2111562735
 O          1.4763652379        1.0123337730       -2.1797224379
 O          2.8085203566        0.6657808384        2.3271658874
 C          1.3557901868        2.2440100435        0.4486144465
 C         -0.1151674845        2.0267189379        0.1905191381
 C         -0.8977736275        2.8717147756       -0.5839019018
 C         -2.2340990990        2.5824327180       -0.8028891782
 C         -2.8187407314        1.4575263699       -0.2516442745
 C         -2.0465430666        0.6094802420        0.5320106155
 C         -0.7103551256        0.9020446440        0.7502781145
 H         -0.1077312613        0.2361499856        1.3568227485
 N         -2.6348666822       -0.5338939891        1.1071962423
 S         -3.3956362470       -1.6098646132        0.0619736437
 O         -3.3535355448       -2.8874316068        0.7410054149
 O         -2.8171151020       -1.5658890893       -1.2613475300
 C         -5.0794513899       -1.0329089507        0.0176082683
 C         -5.6643063725       -0.7085218657       -1.1906746095
 C         -6.9783404864       -0.2665683296       -1.2012505265
 C         -7.6798535421       -0.1587935699       -0.0101978315
 C         -7.0782387005       -0.4907858544        1.1947483874
 C         -5.7655173488       -0.9340825301        1.2124217693
 H         -5.2615465937       -1.2054164383        2.1249325222
 H         -7.6269959189       -0.4054081822        2.1187392708
 H         -8.7016036401        0.1863966998       -0.0213152338
 H         -7.4472607312       -0.0080262965       -2.1370232713
 H         -5.0765550771       -0.8026020844       -2.0900493883
 H         -2.0078714194       -1.0368694973        1.7195051332
 H         -3.8569579567        1.2265571374       -0.4258165941
 H         -2.8284957497        3.2432527722       -1.4151205532
 H         -0.4595030944        3.7498455376       -1.0283276171
 H          1.4961064095        2.3811169525        1.5311279400
 C          1.9364040134        3.4398602900       -0.2746027152
 C          1.7872885079        4.8136767329        0.3055583803
 C          3.1240385768        4.1370637342        0.3159306047
 H          3.8929372888        4.4985392778       -0.3502493923
 H          3.5026353493        3.7625729534        1.2558950714
 H          1.6401897085        5.6444790878       -0.3676732834
 H          1.2587858315        4.9049357356        1.2422520775
 H          1.9061985257        3.3299600640       -1.3527019549
