  62
        -98.94176099
 C         -1.5683175593       -1.4903734607        0.1607552807
 C         -2.4994543897       -0.8808911411        1.0402986705
 C         -3.2958278502        0.2207064784        0.4845107504
 C         -3.0821423703        0.6083771385       -0.7857219396
 C         -3.8412465307        1.6961995381       -1.4882148698
 C         -3.1509184514        3.0588149984       -1.3476642998
 C         -2.7306846218        3.3922204187        0.0833495503
 H         -1.9579718115        2.6887441291        0.4022281204
 H         -2.2754797023        4.3844989689        0.0682348103
 C         -3.8825837019        3.3803671982        1.0983340401
 H         -3.7922685524        4.2597369083        1.7394787701
 H         -4.8373513519        3.4578408977        0.5766883400
 C         -3.9098773614        2.1607337282        2.0216362002
 H         -4.6124805816        2.3662529079        2.8337552601
 H         -2.9239800713        2.0191525387        2.4719280003
 C         -4.3388208806        0.8386784680        1.3723097802
 H         -4.5174331703        0.1163422079        2.1743943702
 H         -5.2747558406        0.9827957375        0.8280369001
 H         -3.8295602918        3.8289272281       -1.7189573999
 H         -2.2605677714        3.0566614288       -1.9787470297
 H         -4.8485656008        1.7434186476       -1.0782322999
 H         -3.9044134905        1.4385915080       -2.5470650198
 O         -2.1204949699        0.0613541789       -1.5693978495
 C         -1.3319338094       -0.9947794106       -1.1226338693
 O         -0.4856889791       -1.3715738103       -1.9521828792
 O         -2.6648860097       -1.2512432211        2.2336991105
 C         -0.7959426688       -2.6887691903        0.6829183008
 C          0.6716116012       -2.5578979095        0.3683988410
 C          1.3387991117       -3.3868872693       -0.5235060289
 C          2.6846527717       -3.1976277186       -0.7843861688
 C          3.3951238011       -2.1901945082       -0.1581682587
 C          2.7359956806       -1.3514820685        0.7320222911
 C          1.3865644406       -1.5415265791        0.9911421710
 H          0.8728533902       -0.8843267094        1.6825549409
 N          3.4572127800       -0.3275655081        1.3822339412
 S          4.1437671495        0.8938893722        0.4715187712
 O          4.9187907199        0.3101763526       -0.5921708687
 O          4.8653372689        1.7183920826        1.4136304812
 C          2.7854834191        1.8350932715       -0.2051558190
 C          1.9340840495        1.2407514110       -1.1159582691
 C          0.8795726291        1.9822003704       -1.6260842993
 C          0.7018291984        3.2981388004       -1.2278300193
 C          1.5620050880        3.8785795609       -0.3084699293
 C          2.6106634883        3.1397826214        0.2136387109
 H          3.3040866681        3.5474611118        0.9314062909
 H          1.4170729475        4.9009627408        0.0013192506
 H         -0.1111275318        3.8767342099       -1.6370383395
 H          0.2020092295        1.5145044601       -2.3238933593
 H          2.0865847100        0.2165269411       -1.4185072890
 H          2.9598931897        0.0813914817        2.1609517111
 H          4.4398861510       -2.0241240777       -0.3626470186
 H          3.1890258521       -3.8449984184       -1.4857424887
 H          0.7980801922       -4.1655809996       -1.0354271789
 H         -0.9135053789       -2.6336797803        1.7780299208
 C         -1.3784953880       -4.0283482706        0.2549337608
 C         -2.8546125779       -4.1982498814        0.0597082007
 C         -1.9304333677       -4.2694112809       -1.1169181692
 H         -1.7591067272       -5.2323990809       -1.5755136791
 H         -1.9197045081       -3.4472003110       -1.8153038093
 H         -3.3174221175       -5.1090004816        0.4088183107
 H         -3.4780994184       -3.3227219917        0.1684605305
 H         -0.8582390777       -4.8592253203        0.7218413709
