  62
        -98.92966684
 C         -1.9261337683       -0.6090320991        0.7693085982
 C         -2.4214734052       -0.3695227890       -0.5355128184
 C         -3.1944575328        0.8689698426       -0.7012455740
 C         -3.3525738429        1.7073536394        0.3384072226
 C         -4.0863540594        3.0210604478        0.3144874784
 C         -5.6041365383        2.8927066677        0.5042064820
 C         -6.3628546365        2.3174115794       -0.6924426577
 H         -7.4256017092        2.4864294031       -0.5081727952
 H         -6.0953513352        2.8737678027       -1.5911964966
 C         -6.1344572157        0.8174069395       -0.9255749636
 H         -5.7097901720        0.3694942824       -0.0242136927
 H         -7.0936236573        0.3268395371       -1.1055026724
 C         -5.2285746010        0.4907296730       -2.1128097988
 H         -5.1048680824       -0.5939322562       -2.1609927913
 H         -5.7059942043        0.8180277629       -3.0389415955
 C         -3.8324830420        1.1223223966       -2.0338284744
 H         -3.2008839924        0.6583114241       -2.7952556181
 H         -3.8906286019        2.1925438859       -2.2310973904
 H         -5.7940261655        2.2778136592        1.3870276267
 H         -5.9919467714        3.8936929202        0.7069095031
 H         -3.6841482440        3.6155480401        1.1378559269
 H         -3.8770478032        3.5397100654       -0.6215790941
 O         -2.8283248215        1.4559219419        1.5693425207
 C         -2.1232566908        0.2888304910        1.8167733923
 O         -1.7244170397        0.1700244171        2.9951499873
 O         -2.2290157257       -1.1358666148       -1.5123424870
 C         -1.1186342741       -1.8668525037        1.0686673281
 C         -0.0254756191       -1.9840818525        0.0313722006
 C          0.2353061074       -3.0467165077       -0.8234971319
 C          1.2865117071       -2.9886764236       -1.7248363401
 C          2.1122322387       -1.8846862932       -1.7929944463
 C          1.8604500529       -0.8082312094       -0.9485154163
 C          0.8057140790       -0.8679524242       -0.0553777741
 H          0.6215032472       -0.0163092947        0.5866458665
 N          2.6408568967        0.3550647840       -1.0069121082
 S          3.2642451856        1.0717934304        0.3770518921
 O          2.9080408649        0.2925889354        1.5356066679
 O          2.8688133609        2.4614899419        0.3807287167
 C          5.0230866960        0.9600524737        0.0901715005
 C          5.6439644333       -0.2490218431        0.3406565989
 C          7.0014097923       -0.3696487895        0.0904212518
 C          7.7103567473        0.7142397991       -0.4066543937
 C          7.0728983370        1.9205784258       -0.6538900892
 C          5.7147778338        2.0478437726       -0.4059764412
 H          5.1768568630        2.9662640945       -0.5761941664
 H          7.6273689445        2.7616030650       -1.0379297916
 H          8.7668969967        0.6177150238       -0.6003312697
 H          7.4998532140       -1.3059047010        0.2833160583
 H          5.0530817318       -1.0607263720        0.7345394259
 H          3.2917970913        0.3832796512       -1.7778504262
 H          2.9272016556       -1.8427620426       -2.4995989296
 H          1.4609774257       -3.8252268524       -2.3846391043
 H         -0.3847710753       -3.9239038571       -0.8265406244
 H         -0.6079722489       -1.6604729857        2.0255168660
 C         -2.0969459735       -2.9959705329        1.3580441982
 C         -2.7520201808       -3.8601888546        0.3270406274
 C         -1.7935965860       -4.4634312125        1.3125172663
 H         -2.2054377131       -5.0781460591        2.0996470737
 H         -0.8192758055       -4.7838230128        0.9834571850
 H         -3.8051321954       -4.0715626210        0.4462694457
 H         -2.4590568977       -3.7243427920       -0.7011427827
 H         -2.7394882790       -2.6824473864        2.1794820724
