  62
        -98.93693963
 C         -2.1266762783       -1.3253824136        0.0292851858
 C         -2.9316048023       -0.6453228949        0.9695204640
 C         -3.7264992577        0.4902376619        0.4654458772
 C         -3.6447824767        0.8148385449       -0.8376228938
 C         -4.3437119252        1.9262468180       -1.5795645528
 C         -5.8336276728        2.1356237282       -1.2674701524
 C         -6.1170186045        3.4196624043       -0.4858510348
 H         -5.4722395122        4.2112840039       -0.8734399227
 H         -7.1502573408        3.7209223544       -0.6717903101
 C         -5.9323898019        3.3135740969        1.0269419903
 H         -6.0241878323        4.3198207145        1.4424015148
 H         -6.7410171051        2.7127196139        1.4485243974
 C         -4.6000147864        2.7153661282        1.4829005893
 H         -4.4142014190        3.0543717355        2.5044226366
 H         -3.7818246798        3.0929717255        0.8700267385
 C         -4.5862135275        1.1792264309        1.4902612525
 H         -4.2080954341        0.8202864809        2.4527197513
 H         -5.6076235908        0.7969786089        1.4079352349
 H         -6.2252130154        1.2715815993       -0.7330863948
 H         -6.3660717354        2.1961205003       -2.2179406461
 H         -4.2159824167        1.6828237543       -2.6368579872
 H         -3.7936153127        2.8552518696       -1.4081187130
 O         -2.8361427735        0.1416043964       -1.7063355465
 C         -2.0553632008       -0.9292866259       -1.3055681167
 O         -1.3647500499       -1.4314819737       -2.2114989065
 O         -2.9781583404       -0.9649670132        2.1893915775
 C         -1.2734428386       -2.4929920631        0.4914284516
 C          0.1843456247       -2.1752280172        0.2644502279
 C          1.0706893004       -3.0335602661       -0.3714463603
 C          2.3889212691       -2.6584418029       -0.5683456064
 C          2.8529622857       -1.4315387549       -0.1319073839
 C          1.9764269991       -0.5679107891        0.5124803754
 C          0.6588895685       -0.9474174875        0.7107878796
 H         -0.0244951613       -0.2701513143        1.2094404338
 N          2.4401719183        0.6793899731        0.9722412797
 S          3.2096009807        1.6773217755       -0.1409698783
 O          3.0289741754        3.0193382270        0.3703815191
 O          2.7445401327        1.4342460840       -1.4870339123
 C          4.9257615242        1.2269641215        0.0083617028
 C          5.6313689232        0.8236547610       -1.1081900701
 C          6.9676314982        0.4815985284       -0.9684028884
 C          7.5706036865        0.5489995476        0.2782724590
 C          6.8482768196        0.9587567414        1.3892915068
 C          5.5128098951        1.3035518974        1.2563363609
 H          4.9168167008        1.6302380244        2.0919574979
 H          7.3206067305        1.0098964346        2.3570137487
 H          8.6097779228        0.2805813318        0.3844881060
 H          7.5304807575        0.1633820907       -1.8311731421
 H          5.1175190864        0.7800567273       -2.0554187851
 H          1.7398788502        1.2029208793        1.4784408283
 H          3.8764919013       -1.1338720426       -0.2908657888
 H          3.0646677579       -3.3322825115       -1.0724830334
 H          0.7273899011       -3.9914317181       -0.7256033505
 H         -1.4429530341       -2.5682809325        1.5758901374
 C         -1.7291245621       -3.7789973842       -0.1639812176
 C         -1.5205658140       -5.0925266797        0.5269096103
 C         -2.8979452828       -4.5127474200        0.4198428218
 H         -3.6042612136       -4.9750916496       -0.2531752860
 H         -3.3505607346       -4.0962994860        1.3079609005
 H         -1.2828476258       -5.9581239090       -0.0726407279
 H         -1.0388031857       -5.0777040564        1.4926840971
 H         -1.6480811193       -3.7461938828       -1.2446654015
