  62
        -98.94351028
 C         -1.7811498995       -1.1042126396        0.2565512003
 C         -2.3018480496       -0.1080911701        1.1247172209
 C         -3.7418824296        0.1526614199        1.0299519411
 C         -4.4923282796       -0.5632461096        0.1733747307
 C         -5.9807237696       -0.4483969996       -0.0147920592
 C         -6.4061888497        0.6712377709       -0.9740906786
 C         -6.2501453197        2.0899376106       -0.4254279678
 H         -6.7824139997        2.7576116010       -1.1058250474
 H         -6.7393945397        2.1585719201        0.5466780223
 C         -4.7952146497        2.5652212406       -0.3062371476
 H         -4.1500776297        1.9226325610       -0.9101203279
 H         -4.7072713098        3.5758653609       -0.7114336970
 C         -4.2543116397        2.6035276699        1.1233420124
 H         -4.8071182497        3.3450941495        1.7045983229
 H         -3.2079132497        2.9185038599        1.0851958126
 C         -4.3177766796        1.2593038295        1.8606070817
 H         -3.7182503796        1.3390748590        2.7708418917
 H         -5.3468581196        1.0311705893        2.1381444416
 H         -5.8350015997        0.5741359115       -1.9001612986
 H         -7.4597635497        0.5114654910       -1.2145196486
 H         -6.3150947296       -1.4019925294       -0.4289898997
 H         -6.4613273096       -0.3019470301        0.9529513909
 O         -3.9629639896       -1.5225159792       -0.6269440199
 C         -2.6025179696       -1.8016939291       -0.6303541401
 O         -2.2858101095       -2.6847385086       -1.4506201706
 O         -1.5945082495        0.5253213395        1.9539963112
 C         -0.2867202795       -1.3702404296        0.3394025501
 C          0.4513753304       -0.6681711389       -0.7756664095
 C          0.3451174104       -1.0885785782       -2.0980279698
 C          1.0262011203       -0.4226694576       -3.0998083494
 C          1.8389702003        0.6580908323       -2.8046737988
 C          1.9506181003        1.0869194015       -1.4878088186
 C          1.2572999504        0.4235217310       -0.4837290290
 H          1.3314110304        0.7855850204        0.5310562812
 N          2.7658044903        2.1795769714       -1.1585750480
 S          3.6542114203        2.1542685606        0.2543841019
 O          2.8240344204        2.4928324600        1.3823189821
 O          4.7615008603        3.0507729208       -0.0029231976
 C          4.2578847504        0.4820324006        0.4139943710
 C          4.9461469004       -0.0754892588       -0.6457904494
 C          5.4272856604       -1.3689998989       -0.5272565101
 C          5.2215083205       -2.0777466395        0.6463257395
 C          4.5359751605       -1.5017907101        1.7046285299
 C          4.0448182805       -0.2104550401        1.5879350406
 H          3.4958584605        0.2705154295        2.3822779709
 H          4.3785624806       -2.0536808306        2.6178789396
 H          5.5960182605       -3.0848313696        0.7382045990
 H          5.9607926604       -1.8195784884       -1.3484404404
 H          5.1028885803        0.5040725417       -1.5406821290
 H          3.2916869102        2.5670801218       -1.9279399578
 H          2.3737425102        1.1742111627       -3.5874523086
 H          0.9296120303       -0.7535398470       -4.1227461996
 H         -0.2955159696       -1.9238374581       -2.3329501102
 H          0.0310545605       -0.9073970301        1.2838448704
 C          0.0627121205       -2.8452668696        0.3843925593
 C          1.4377048106       -3.2449463398        0.8246809490
 C          0.2595069106       -3.5112480103        1.7115390289
 H         -0.0797783494       -4.5292058504        1.8312851084
 H          0.1390509406       -2.9047873808        2.5976173992
 H          1.9111666106       -4.0812726095        0.3345762285
 H          2.1182443105       -2.4549077299        1.1047631994
 H         -0.4062554695       -3.4254693592       -0.3988382310
