  62
        -98.94201072
 C         -0.6687838381       -1.3640238215        0.0159809443
 C         -1.4184283698       -0.7497016269        1.0434523589
 C         -2.4513635027        0.2160907564        0.6240079891
 C         -2.6238263066        0.4648921963       -0.6879276155
 C         -3.6385096642        1.3147539334       -1.4260756157
 C         -4.7446335018        2.0406208626       -0.6658045756
 C         -5.8601325713        1.1271477847       -0.1536442940
 H         -6.5081876478        1.7064762443        0.5072129235
 H         -6.4599855984        0.8070456999       -1.0092657191
 C         -5.4017123882       -0.1325941963        0.5770461997
 H         -6.2893197616       -0.7268800267        0.8104115821
 H         -4.7745255210       -0.7349510145       -0.0827757280
 C         -4.6511323534        0.1102285598        1.8836661651
 H         -5.2668560290        0.7091890543        2.5580292868
 H         -4.4836767146       -0.8605500022        2.3585062871
 C         -3.2843424840        0.7947436170        1.7326215681
 H         -2.7204319139        0.6263403248        2.6554078386
 H         -3.3967293667        1.8695462533        1.6135149282
 H         -4.3224739218        2.6284672657        0.1440713157
 H         -5.1976548612        2.7478010625       -1.3656115136
 H         -4.0950869585        0.6544814314       -2.1709342225
 H         -3.0581336633        2.0500352087       -1.9899382524
 O         -1.8061831228       -0.0817621767       -1.6352279211
 C         -0.8189651470       -0.9988161465       -1.3201503911
 O         -0.1668467666       -1.4076119395       -2.2978864253
 O         -1.2498091598       -1.0102945592        2.2661190044
 C          0.3218723886       -2.4568649332        0.3741437338
 C          1.7146731869       -2.0707460916       -0.0518613382
 C          2.5014617791       -2.8382180049       -0.9003034173
 C          3.7715656775       -2.4138036810       -1.2497959670
 C          4.2811203539       -1.2248641740       -0.7630144519
 C          3.5051794677       -0.4552525145        0.0979566017
 C          2.2343053886       -0.8818890557        0.4470495330
 H          1.6404033110       -0.2871625526        1.1266024605
 N          4.0054508042        0.7428832328        0.6243111162
 S          2.9980154172        1.9643108811        1.1263916375
 O          3.8455180610        3.1390703766        1.1329340085
 O          2.3928313484        1.6319434683        2.3918577786
 C          1.7411106293        2.1717858306       -0.1229533164
 C          0.4836386156        2.5697743632        0.2817000840
 C         -0.4760949781        2.8469205964       -0.6776745817
 C         -0.1673862764        2.7041612216       -2.0210594322
 C          1.0937685867        2.2848360400       -2.4121280140
 C          2.0632909597        2.0264744306       -1.4572518146
 H          3.0537487297        1.7119235845       -1.7427771160
 H          1.3247473155        2.1599020317       -3.4576412282
 H         -0.9122073890        2.9177289224       -2.7716257612
 H         -1.4570680495        3.1717297251       -0.3701410131
 H          0.2783502192        2.6496478840        1.3377506568
 H          4.8651031715        1.0807880458        0.2191817731
 H          5.2707377916       -0.8936666672       -1.0376788907
 H          4.3715271962       -3.0160730355       -1.9147768614
 H          2.1197691419       -3.7651386341       -1.2941635794
 H          0.3093346781       -2.5125496588        1.4728891381
 C         -0.1460632038       -3.7836456019       -0.1874421566
 C          0.2747435548       -5.0663939031        0.4630811717
 C         -1.1402063287       -4.5899690005        0.5910184211
 H         -1.9140970769       -5.1156017115        0.0518914354
 H         -1.4646769335       -4.1932743568        1.5421653378
 H          0.4708779319       -5.9234811062       -0.1631160143
 H          0.9123751325       -4.9991865349        1.3315569469
 H         -0.2551064447       -3.7662690975       -1.2660952836
