  62
        -98.93860807
 C         -2.6227750026       -1.2472159480        0.1635991275
 C         -2.4520275646       -0.2727702485       -0.8474127803
 C         -3.1736867161        1.0007203435       -0.6645247116
 C         -3.9719841948        1.1679026114        0.4057134398
 C         -4.8464970540        2.3304600604        0.8263675032
 C         -4.6571835133        3.7133739023        0.2080127015
 C         -3.3290691885        4.3918679907        0.5442031478
 H         -3.2611599631        5.3152407753       -0.0350042623
 H         -3.3352380906        4.6627265142        1.6028939149
 C         -2.0747346944        3.5574103721        0.2939781008
 H         -1.2062489703        4.1572744932        0.5798074816
 H         -2.0784466834        2.6791907244        0.9434209734
 C         -1.8611822157        3.1023866016       -1.1485850616
 H         -0.8657339870        2.6493109706       -1.2016427030
 H         -1.8683380126        3.9688788288       -1.8133358444
 C         -2.8754289440        2.0711696292       -1.6736810504
 H         -3.7896297561        2.5518797049       -2.0128945395
 H         -2.4281013969        1.5685483572       -2.5362534685
 H         -4.7990456345        3.6679788102       -0.8677041883
 H         -5.4573957444        4.3431281874        0.6061877876
 H         -5.8781112375        2.0096367757        0.6445244135
 H         -4.7339089838        2.4063416556        1.9123709564
 O         -4.1508530796        0.1750352469        1.3256114352
 C         -3.4625917525       -1.0206184002        1.2561151202
 O         -3.6870960541       -1.7956644750        2.2066361888
 H          0.1706659918       -1.7971574908       -1.5155749345
 C          0.4784825646       -1.7963580785       -0.4818903203
 C         -0.4124345874       -2.1986109944        0.5019879493
 C          0.0002352821       -2.1559747717        1.8304564738
 C          1.2682352804       -1.7150235750        2.1619632594
 C          2.1428768787       -1.2851068619        1.1788392616
 C          1.7352473517       -1.3136344449       -0.1473786431
 N          2.6021219700       -0.8271248424       -1.1486522062
 S          3.0443126044        0.7901378419       -0.9835917665
 O          2.0481717779        1.5471761450       -0.2609840020
 O          3.3562279597        1.2442493817       -2.3218547210
 C          4.5527980827        0.7096831157       -0.0395423959
 C          4.6612360044        1.4058959059        1.1480927032
 C          5.8481797074        1.3341721674        1.8609719194
 C          6.8995394153        0.5716004535        1.3758777697
 C          6.7750299086       -0.1207392247        0.1803541847
 C          5.5919860038       -0.0518537966       -0.5377547178
 H          5.4541362312       -0.5703318935       -1.4717553263
 H          7.5947623601       -0.7129465447       -0.1932104087
 H          7.8213163585        0.5167227750        1.9331627712
 H          5.9463561673        1.8717779157        2.7904242410
 H          3.8140168669        1.9797306618        1.4887404593
 H          2.2357692254       -0.9747560236       -2.0796058431
 H          3.1241456393       -0.9166433908        1.4308120040
 H          1.5746902111       -1.6924105418        3.1967578258
 H         -0.6966054921       -2.4502231522        2.6029618879
 C         -1.8418506239       -2.5542026642        0.1719373175
 H         -2.2502517544       -3.1425814197        1.0037632988
 C         -1.9996375169       -3.3480045502       -1.1074089099
 C         -1.5774526172       -4.7856369661       -1.1260301291
 C         -3.0325716680       -4.4310348041       -1.1713482250
 H         -3.5711226433       -4.5735102225       -2.0962329084
 H         -3.6296742522       -4.6050707742       -0.2880657890
 H         -1.1150985071       -5.1761740573       -2.0195435770
 H         -1.1858642964       -5.2004656009       -0.2095801949
 H         -1.8462396274       -2.7623871858       -2.0043698580
 O         -1.7394348871       -0.4384815348       -1.8733881168
