  62
        -98.93960517
 C          2.6089565993        0.7007334867        0.6520274162
 C          3.0028195915        0.1369325211       -0.5858368481
 C          3.4673175905       -1.2571490772       -0.5333734334
 C          3.4945633661       -1.9006765817        0.6479250473
 C          3.8865401968       -3.3374123165        0.8335801726
 C          2.6651542862       -4.2626499637        0.7371779321
 C          1.7861152330       -4.0016253411       -0.4862457736
 H          0.9741969759       -4.7316671373       -0.4648336930
 H          1.3313239192       -3.0121948752       -0.3963457903
 C          2.5234146968       -4.0970255961       -1.8292744521
 H          3.4603090380       -4.6400606548       -1.6999453839
 H          1.9091320720       -4.6711885142       -2.5259513038
 C          2.8077734338       -2.7487762418       -2.4941628198
 H          3.1283945665       -2.9375857047       -3.5221380907
 H          1.8875635022       -2.1604390624       -2.5421680612
 C          3.8916235749       -1.8920132133       -1.8276124283
 H          4.7972278320       -2.4858324174       -1.6882119270
 H          4.1227247297       -1.0644106196       -2.5046266557
 H          3.0159968379       -5.2960064758        0.7210829561
 H          2.0552760001       -4.1246488286        1.6330070993
 H          4.6217575410       -3.6080313045        0.0784087509
 H          4.3367136439       -3.4462400058        1.8217029599
 O          3.1107852203       -1.3234628922        1.8159992524
 C          2.6448923820       -0.0192422261        1.8452760845
 O          2.2915149483        0.3761889831        2.9758026410
 O          2.9681858271        0.7607225925       -1.6777749690
 C          2.0887454842        2.1262477600        0.7023916109
 C          0.8485450599        2.2438986559       -0.1518680754
 C          0.6632975039        3.2337126723       -1.1066446311
 C         -0.5023788388        3.2753068198       -1.8531615891
 C         -1.5034234710        2.3410923814       -1.6649793516
 C         -1.3353205168        1.3544019042       -0.7009806700
 C         -0.1699729884        1.3194526692        0.0493906387
 H         -0.0378772969        0.5535173074        0.8050275486
 N         -2.3399121485        0.3836880908       -0.5040774959
 S         -3.9228488480        0.9546674550       -0.3317147108
 O         -4.4265684017        1.3036490924       -1.6358241202
 O         -3.9679591022        2.0034441917        0.6635089682
 C         -4.7505167501       -0.5061874674        0.2626229714
 C         -5.0217922286       -0.6330553526        1.6114628343
 C         -5.6503893651       -1.7830136906        2.0630992098
 C         -5.9909629862       -2.7818626565        1.1635292259
 C         -5.7110648729       -2.6399950426       -0.1876966815
 C         -5.0848919067       -1.4920991318       -0.6462950425
 H         -4.8567388955       -1.3339508768       -1.6873104431
 H         -5.9793398523       -3.4184115693       -0.8836065771
 H         -6.4803794963       -3.6752846511        1.5178929244
 H         -5.8716765891       -1.8945673573        3.1123924439
 H         -4.7455812730        0.1721111807        2.2735676944
 H         -2.1127043738       -0.2297402275        0.2676941362
 H         -2.4140231256        2.3676538057       -2.2409118478
 H         -0.6318446320        4.0467502207       -2.5973657949
 H          1.4319379741        3.9703225962       -1.2725793792
 H          1.7961188582        2.3068506857        1.7474552091
 C          3.1838842986        3.1025598636        0.3292371289
 C          3.1660347854        4.4977759266        0.8750164443
 C          4.1746064681        3.5095650367        1.3766802183
 H          5.2077903545        3.6333842651        1.0890177223
 H          4.0438235357        3.1007151571        2.3683290149
 H          3.5098999724        5.3035424111        0.2442408334
 H          2.3516612781        4.7677431689        1.5304638402
 H          3.5552664721        2.9484183848       -0.6770783845
