  62
        -98.93469060
 C          2.6549026304        0.9193113446       -0.2098629424
 C          2.1974832929       -0.1593283471       -1.0001562349
 C          2.7131882454       -1.5039867936       -0.6654858632
 C          3.5738291461       -1.6392963669        0.3594151959
 C          4.2031681093       -2.8950453111        0.9026090871
 C          3.2288638030       -3.7352795186        1.7418665539
 C          1.8460824797       -3.9215128072        1.1234103708
 H          1.3820291470       -2.9441089074        0.9747359286
 H          1.2281435913       -4.4588903667        1.8479970146
 C          1.8202129235       -4.7058917241       -0.1865706139
 H          0.7697765311       -4.8571035974       -0.4481657440
 H          2.2670941430       -5.6891463857       -0.0239664940
 C          2.5143391152       -4.0435639190       -1.3794342325
 H          2.1843413114       -4.5698119628       -2.2797962779
 H          3.5927876380       -4.1663570740       -1.3285945743
 C          2.1625340240       -2.5731435576       -1.5788576680
 H          1.0723013495       -2.4596269515       -1.5541122461
 H          2.4611018431       -2.2751430671       -2.5910409847
 H          3.0972567245       -3.2396284607        2.7070008482
 H          3.6834510310       -4.7110009524        1.9224189298
 H          4.6225232713       -3.4851123032        0.0931997945
 H          5.0276521032       -2.5762277222        1.5442938072
 O          3.9841218753       -0.5708100827        1.1014836842
 C          3.5415487850        0.7094485373        0.8507249874
 O          4.0081178288        1.5734357407        1.6208357402
 H         -0.1468850016        1.2496680540       -1.1280119505
 C         -0.2599063716        1.9043054000       -0.2762708313
 C          0.8523208147        2.5703208775        0.2185239693
 C          0.6938067972        3.3878185731        1.3311814882
 C         -0.5452040234        3.5281193682        1.9326751357
 C         -1.6486743793        2.8511844989        1.4439682467
 C         -1.4969641892        2.0283540217        0.3362836784
 N         -2.6112896499        1.3012540322       -0.1561102678
 S         -3.0948929577        0.0518609912        0.8804694659
 O         -3.5498981662        0.6392415818        2.1147564627
 O         -2.0453009501       -0.9392378704        0.9966819550
 C         -4.4784520921       -0.6171004827       -0.0210514944
 C         -5.7028092472        0.0150973618        0.0786496493
 C         -6.7731893303       -0.4816161656       -0.6476708818
 C         -6.6016743643       -1.5940696491       -1.4581931472
 C         -5.3662968675       -2.2173351349       -1.5482340331
 C         -4.2913655720       -1.7247978721       -0.8248791786
 H         -3.3147295397       -2.1814748718       -0.8583148525
 H         -5.2352761975       -3.0827866170       -2.1777873415
 H         -7.4361499134       -1.9796910277       -2.0222982956
 H         -7.7358571549       -0.0012665389       -0.5796123110
 H         -5.7895383857        0.8712653601        0.7266149283
 H         -2.3794303499        0.8752467004       -1.0463873815
 H         -2.6116944649        2.9279552824        1.9211278673
 H         -0.6512401778        4.1654101129        2.7976809483
 H          1.5559394885        3.8968258465        1.7379122401
 C          2.2100458355        2.3618190166       -0.4090112807
 H          2.9332768058        2.9718253862        0.1485971771
 C          2.2297315497        2.8020295576       -1.8595048919
 C          2.2967058599        4.2656535042       -2.1711780162
 C          3.4846758921        3.3889925318       -2.4285575015
 H          3.7449130707        3.1549920288       -3.4498632608
 H          4.3372985547        3.4779417474       -1.7708155555
 H          2.3448212066        4.9519043146       -1.3392359570
 H          1.7390628245        4.6374613061       -3.0168638717
 H          1.6377550767        2.1729565578       -2.5104105283
 O          1.3869140843       -0.0439874082       -1.9603611477
