  62
        -98.94314925
 C         -2.5814262618       -0.0945791294        0.3445591154
 C         -2.6545484152       -1.1043511017       -0.6503248138
 C         -2.0754679672       -2.4055329241       -0.3092386543
 C         -1.5178546366       -2.5841247384        0.9012876697
 C         -0.8444778576       -3.8367767408        1.3916644581
 C          0.6164217503       -3.9542108771        0.9346662374
 C          0.8076607651       -4.3386653198       -0.5335275705
 H          1.8512776390       -4.6372883514       -0.6510210345
 H          0.1905740982       -5.2078735234       -0.7653094689
 C          0.5069213627       -3.2074991878       -1.5268039494
 H          0.5275090882       -2.2483832575       -1.0036146552
 H          1.2939946657       -3.1739503734       -2.2844713939
 C         -0.8212618615       -3.3459759915       -2.2716400894
 H         -0.7854617346       -4.2214199597       -2.9249619147
 H         -0.9527196847       -2.4601234937       -2.8983242056
 C         -2.0527518145       -3.4687191712       -1.3661209098
 H         -2.9446428816       -3.3381184308       -1.9844480851
 H         -2.0860166153       -4.4568954059       -0.9074073725
 H          1.0940429874       -4.7159599187        1.5558909999
 H          1.1158434453       -3.0004657501        1.1267513015
 H         -1.4054399202       -4.7131376800        1.0649221816
 H         -0.8647503095       -3.7951369828        2.4828941790
 O         -1.5180438710       -1.6148583925        1.8513198259
 C         -2.0037073902       -0.3401084501        1.5908456151
 O         -1.8786805667        0.4389607105        2.5581555988
 O         -3.1850211171       -0.9195725866       -1.7798851634
 C         -3.0335070722        1.2906055823       -0.0876021379
 C         -1.8673771356        1.9745026445       -0.7662994625
 C         -2.0043117961        2.5808732105       -2.0090736155
 C         -0.9042211323        3.1195323709       -2.6535778996
 C          0.3561398547        3.0269775298       -2.0916144978
 C          0.5004679426        2.4301183353       -0.8438373807
 C         -0.6132985149        1.9484121703       -0.1742305474
 H         -0.4806772034        1.5053367574        0.8014464988
 N          1.7589499416        2.2852850000       -0.2405468168
 S          2.0433628493        0.8498515986        0.6144981183
 O          1.3025087905       -0.2396992909        0.0250008010
 O          1.8290171445        1.1050064627        2.0171984193
 C          3.7890589941        0.6276059317        0.3189101701
 C          4.6894341199        1.3898198204        1.0397386585
 C          6.0443209848        1.2389969725        0.7908026794
 C          6.4740367583        0.3341986801       -0.1689749747
 C          5.5589664549       -0.4251404331       -0.8823216821
 C          4.2019999344       -0.2777874343       -0.6396696259
 H          3.4528780362       -0.8503599597       -1.1631065862
 H          5.8952283300       -1.1306836051       -1.6248014830
 H          7.5290927644        0.2180043051       -0.3599394479
 H          6.7586648075        1.8254262826        1.3456744024
 H          4.3081347789        2.0702700735        1.7833189170
 H          2.5264330315        2.5208354335       -0.8547464744
 H          1.2216380802        3.4070132672       -2.6127502511
 H         -1.0242521864        3.5871637187       -3.6189717836
 H         -2.9750075152        2.6043856550       -2.4814605303
 H         -3.8099610877        1.1265166102       -0.8484543215
 C         -3.6115263066        2.1613682033        1.0071412592
 C         -4.5700613784        3.2530401814        0.6387018780
 C         -5.0621456237        2.0344710698        1.3590043592
 H         -5.3459797769        2.1209857756        2.3967578942
 H         -5.6475770527        1.3151273938        0.8050492129
 H         -4.5181527253        4.1846903153        1.1805087716
 H         -4.8298020266        3.3625970747       -0.4031561671
 H         -2.9188225380        2.3493017389        1.8171311773
