  62
        -98.93848711
 C          1.7928246828        0.9786215082        0.8026641626
 C          1.9831822678       -0.4216022183        0.9365600673
 C          3.3502460182       -0.9147476536        0.7441872887
 C          4.3385600060       -0.0431564535        0.4748147957
 C          5.7892146657       -0.3850178437        0.2678319522
 C          6.1246986939       -0.8405992881       -1.1590365809
 C          5.6257805448       -2.2373754588       -1.5318304769
 H          6.1164817851       -2.5126966712       -2.4675805140
 H          5.9483195460       -2.9513621952       -0.7733558060
 C          4.1059758711       -2.3379174370       -1.7240547140
 H          3.6873782161       -1.3370530761       -1.8535316930
 H          3.8911214944       -2.8944822178       -2.6390779345
 C          3.3672574193       -3.0382859217       -0.5835216520
 H          3.6803477013       -4.0833897088       -0.5313147628
 H          2.2971037079       -3.0159143909       -0.8042482103
 C          3.5792498472       -2.3951246373        0.7929710975
 H          4.5817973922       -2.6130228918        1.1605848977
 H          2.8499395605       -2.8203898997        1.4865861843
 H          7.2127905248       -0.8292090042       -1.2566601426
 H          5.7205252746       -0.1094503948       -1.8630273362
 H          6.3565887563        0.5233832855        0.4815228624
 H          6.0888576082       -1.1567373659        0.9775251467
 O          4.1226062231        1.2938240140        0.3749017274
 C          2.8496165969        1.8410613884        0.5090352752
 O          2.8217311454        3.0749561093        0.3511078643
 O          1.0497364410       -1.2206226354        1.2149134707
 C          0.3728223825        1.4811135840        0.9858306675
 C         -0.3594692637        1.5240255466       -0.3306061056
 C          0.1693247059        2.1842818786       -1.4355501361
 C         -0.5318019919        2.2198550235       -2.6269835010
 C         -1.7675862107        1.6068016841       -2.7381823439
 C         -2.2989721093        0.9334847018       -1.6438170479
 C         -1.5873183336        0.8911426931       -0.4524622626
 H         -1.9978307153        0.3624865123        0.3932717158
 N         -3.5271773189        0.2741524651       -1.7430341127
 S         -4.4952780217       -0.0224658823       -0.4170733195
 O         -5.7851375138       -0.3450304094       -0.9878006909
 O         -4.4750265822        1.0770307401        0.5190600246
 C         -3.7957846780       -1.4856798433        0.3151925490
 C         -3.5564920795       -1.5273155828        1.6739197858
 C         -3.0224276328       -2.6808053774        2.2258202548
 C         -2.7389859966       -3.7668220348        1.4129690156
 C         -2.9885595715       -3.7104315492        0.0502179314
 C         -3.5238402099       -2.5609112474       -0.5070803554
 H         -3.7307330664       -2.4809969125       -1.5613576350
 H         -2.7636268533       -4.5571361583       -0.5783027804
 H         -2.3169769241       -4.6606685115        1.8445306336
 H         -2.8234271061       -2.7249798869        3.2846519241
 H         -3.7817878431       -0.6567870366        2.2704291943
 H         -4.0470251736        0.4300819065       -2.5928898116
 H         -2.3156208729        1.6433755305       -3.6672160087
 H         -0.1151838998        2.7384413453       -3.4775270328
 H          1.1277788841        2.6733663710       -1.3460258405
 H         -0.1154233879        0.7091843569        1.6026118633
 C          0.2781792073        2.7908987674        1.7552575135
 C         -0.1534584859        4.0871251205        1.1453074116
 C         -1.0699493309        3.3632245880        2.0829471791
 H         -1.2336954753        3.7731184738        3.0682736008
 H         -1.9366701142        2.8746613188        1.6600386010
 H          0.3378542601        4.9858015128        1.4859532216
 H         -0.4059635719        4.1030742089        0.0970454825
 H          1.0353425369        2.8588029617        2.5301387259
