  62
        -98.94005881
 C          1.2321081038        1.2336905994        0.0183767979
 C          2.0303345484        0.7065991016        1.0586308090
 C          2.7118529775       -0.5681673136        0.7780586126
 C          2.5175202435       -1.1707430536       -0.4077059155
 C          3.0843659723       -2.4799580240       -0.8973503930
 C          4.5614789136       -2.7704636699       -0.5976532339
 C          5.4761651076       -1.5370920999       -0.5806229284
 H          6.3363449799       -1.7236090614       -1.2262973576
 H          4.9475300100       -0.6719893669       -0.9843644496
 C          6.0031021087       -1.2048776542        0.8174244337
 H          6.3019626757       -2.1332645435        1.3092120663
 H          6.8982336721       -0.5860385176        0.7181569056
 C          5.0301280371       -0.4503091892        1.7227632773
 H          4.9047444073        0.5735295168        1.3598050255
 H          5.4785168939       -0.3836252589        2.7171126929
 C          3.6299672240       -1.0718221021        1.8544774989
 H          3.6805123380       -2.1577952747        1.8677992444
 H          3.2008979374       -0.7320338017        2.8013252861
 H          4.6463121313       -3.2871123142        0.3573161691
 H          4.9068673308       -3.4681232077       -1.3624848633
 H          2.4729314172       -3.2898078391       -0.4903608375
 H          2.9294093890       -2.4683039100       -1.9784604760
 O          1.7041825927       -0.6463224754       -1.3664372182
 C          1.0454459316        0.5587831312       -1.1875835362
 O          0.3434754232        0.9101020975       -2.1520912706
 O          2.1587980282        1.2688203880        2.1805128113
 C          0.5105314587        2.5520853401        0.2337728004
 C         -0.9771104580        2.3258805398        0.1332870416
 C         -1.8151318451        3.0460299166       -0.7063223758
 C         -3.1662937224        2.7482985805       -0.7728221279
 C         -3.7111884932        1.7387181021       -0.0013245071
 C         -2.8821358293        1.0204957129        0.8514120211
 C         -1.5308290815        1.3175749567        0.9141702473
 H         -0.8861345316        0.7518828461        1.5760280237
 N         -3.4268526916       -0.0156336933        1.6430187041
 S         -4.0306680667       -1.3391332870        0.8120416377
 O         -5.1729532906       -0.9215123059        0.0408761841
 O         -4.2711287128       -2.3479220022        1.8187852692
 C         -2.7125510144       -1.8584116710       -0.2703984017
 C         -2.5674757703       -1.2488468581       -1.5004153509
 C         -1.5157040906       -1.6313748816       -2.3170463573
 C         -0.6317621785       -2.6100670935       -1.8906961719
 C         -0.7873771664       -3.2078751244       -0.6496206437
 C         -1.8338884316       -2.8262926840        0.1735012585
 H         -1.9950015411       -3.2715004106        1.1425176163
 H         -0.0980658650       -3.9694468935       -0.3208427341
 H          0.1865528734       -2.9015428433       -2.5296327223
 H         -1.3776222348       -1.1515910381       -3.2720346503
 H         -3.2748770898       -0.4936263534       -1.8018210001
 H         -2.7872164578       -0.3422080464        2.3543441425
 H         -4.7567066690        1.4822656584       -0.0563214551
 H         -3.8041365107        3.3108696107       -1.4376130901
 H         -1.4106078024        3.8341487282       -1.3194382385
 H          0.7436131337        2.8498094037        1.2668241477
 C          1.0358693523        3.6122478538       -0.7099578396
 C          0.9397051203        5.0616635838       -0.3411458706
 C          2.2701728564        4.3724300368       -0.3311822896
 H          2.9845622774        4.6149370039       -1.1036217826
 H          2.7216826981        4.1432981104        0.6232394464
 H          0.7424073537        5.7810387114       -1.1214409167
 H          0.4889596036        5.3069507078        0.6085879922
 H          0.9180098814        3.3388400735       -1.7523024878
