  62
        -98.93186850
 C         -1.9367608280       -0.7930903628        0.2374278886
 C         -2.1827160134        0.3114701844        1.0859780153
 C         -2.6804043608        1.5294954442        0.4352411921
 C         -2.8370356794        1.5408012037       -0.9011696380
 C         -3.3865350312        2.6933667341       -1.6903056032
 C         -4.9109095933        2.5881304605       -1.8405200625
 C         -5.6445418362        2.3212426983       -0.5262880749
 H         -6.7132371322        2.2955074949       -0.7494343807
 H         -5.3680951797        1.3302138061       -0.1593149765
 C         -5.3764724813        3.3594667253        0.5720880622
 H         -4.9634262064        4.2673180876        0.1312688789
 H         -6.3256807821        3.6280184618        1.0403333127
 C         -4.4509029276        2.8749480700        1.6896877201
 H         -4.8097845839        1.9169907443        2.0745732377
 H         -4.4999068892        3.5961058754        2.5098996471
 C         -2.9729774619        2.7159700134        1.3099738781
 H         -2.6095204183        3.6347482557        0.8445553544
 H         -2.4058247898        2.5538235386        2.2317143226
 H         -5.2784382156        3.5158930957       -2.2825496849
 H         -5.1340566987        1.7701941388       -2.5291794594
 H         -3.1216021604        3.6245584614       -1.1931756559
 H         -2.9296850691        2.6786981453       -2.6811580997
 O         -2.5568625438        0.4718611040       -1.6883952688
 C         -2.1035397470       -0.7231146650       -1.1455862163
 O         -1.8925711615       -1.6157270922       -1.9858694039
 H          0.6734721312       -0.6160948119        0.5629639856
 C          0.8300527329       -1.5698196723        0.0775532368
 C         -0.1878728439       -2.5230239026        0.1089528986
 C          0.0446609702       -3.7326381782       -0.5305677065
 C          1.2519745835       -3.9728242583       -1.1679900208
 C          2.2539686140       -3.0246351664       -1.1894088064
 C          2.0304227888       -1.7988234910       -0.5688218955
 N          3.0046784876       -0.7892420170       -0.6250350636
 S          3.0031338682        0.4710131187        0.4877189858
 O          2.9577959168       -0.0458640548        1.8381268755
 O          1.9750257025        1.4144109416        0.1228193367
 C          4.6110768849        1.1685586267        0.1598589325
 C          4.7513780648        2.0589244469       -0.8877573387
 C          6.0070160444        2.5766018324       -1.1636964582
 C          7.0958113700        2.1966803056       -0.3929167016
 C          6.9395716229        1.3038204775        0.6566194956
 C          5.6865951116        0.7819069339        0.9373215930
 H          5.5147212503        0.0931875618        1.7487646588
 H          7.7868756247        1.0130664820        1.2563428723
 H          8.0715749007        2.6016743863       -0.6097674705
 H          6.1311966215        3.2734959653       -1.9767766445
 H          3.8744105946        2.3305482623       -1.4522758493
 H          3.9333752771       -1.1338368751       -0.8225710102
 H          3.1896892769       -3.2162506561       -1.6913785751
 H          1.4084558791       -4.9217663882       -1.6585184269
 H         -0.7071909672       -4.4990385389       -0.5654906373
 C         -1.4235046323       -2.0859077846        0.8592877823
 H         -1.0796701110       -1.7884707151        1.8660889571
 C         -2.6105928268       -3.0091889189        1.0898199822
 C         -3.1985144348       -3.9375615609        0.0741584487
 C         -2.5459513419       -4.4907571379        1.3079722723
 H         -3.1881730094       -4.9082912185        2.0696432606
 H         -1.5926309950       -4.9862205961        1.2304820787
 H         -2.7068309049       -4.0138775906       -0.8818827176
 H         -4.2758424542       -3.9851296549        0.0035930443
 H         -3.3340811027       -2.4826113833        1.7099356918
 O         -1.9977390682        0.2765735336        2.3348411959
