  62
        -98.94095084
 C          1.0954157450        1.4646825013        0.0531482115
 C          1.5502087095        0.4907321498        0.9728673841
 C          2.4893157482       -0.5233464620        0.4629764833
 C          2.8181399020       -0.5134024405       -0.8423583692
 C          3.7328265189       -1.4067828630       -1.6551598050
 C          4.6130210638       -2.4481684591       -0.9699511102
 C          5.7828238188       -1.8620717188       -0.1780770144
 H          6.2597163266       -2.6688690732        0.3823615883
 H          6.5174187411       -1.4720364876       -0.8871925317
 C          5.4288073046       -0.7292793511        0.7823585095
 H          6.3582019291       -0.3697800136        1.2323796738
 H          4.9984965202        0.1048171042        0.2246613816
 C          4.4807819325       -1.1081586455        1.9176478160
 H          4.8962816668       -1.9476039979        2.4787351874
 H          4.4178512283       -0.2525261290        2.5956324379
 C          3.0498748675       -1.4684598319        1.4869332973
 H          2.9939018269       -2.4964180369        1.1392338909
 H          2.4019272952       -1.3848460516        2.3641947189
 H          5.0335417739       -3.0741077895       -1.7616022296
 H          4.0116775766       -3.0986233751       -0.3416437478
 H          3.0867973591       -1.9141756351       -2.3798304737
 H          4.3686122159       -0.7331421145       -2.2390887838
 O          2.2733150514        0.3867297457       -1.7116059159
 C          1.4122462974        1.3911008143       -1.3020874972
 O          1.0163262843        2.1245565981       -2.2262904448
 H         -1.3974724611        0.7363313816        1.6462099460
 C         -1.8937236194        1.2203133413        0.8146481745
 C         -1.2288207133        2.2332354628        0.1326344562
 C         -1.8630691173        2.8362954616       -0.9453249051
 C         -3.1298686997        2.4284775745       -1.3291370714
 C         -3.7904816814        1.4225900935       -0.6465932690
 C         -3.1628550096        0.8155599975        0.4336184839
 N         -3.8263506708       -0.2256107057        1.1257034238
 S         -3.9633202474       -1.6662830473        0.2847956743
 O         -4.7159475962       -1.4282631787       -0.9193827320
 O         -4.5242178471       -2.6163412278        1.2173616483
 C         -2.2893259861       -2.1320005270       -0.1204032097
 C         -1.6388559578       -3.0513604579        0.6777517500
 C         -0.3278381048       -3.3866971593        0.3825571644
 C          0.3100023091       -2.7907506336       -0.6939233428
 C         -0.3515594613       -1.8572444565       -1.4765104519
 C         -1.6645581608       -1.5213601423       -1.1896712551
 H         -2.2078113974       -0.8041633618       -1.7840116646
 H          0.1501073775       -1.3802237536       -2.3044324700
 H          1.3289227339       -3.0544831117       -0.9272200738
 H          0.1926740254       -4.1080183179        0.9916890074
 H         -2.1751137347       -3.4947345471        1.5014916293
 H         -3.4138149284       -0.4179909850        2.0287434626
 H         -4.7689338605        1.0832882330       -0.9450539250
 H         -3.6093988966        2.9014079449       -2.1728602352
 H         -1.3563777141        3.6106446764       -1.4970691886
 C          0.1772065387        2.5630558767        0.5655581639
 H          0.2161132866        2.4845730039        1.6608190285
 C          0.6410342075        3.9450907912        0.1612355080
 C          0.0789322704        5.1397766282        0.8702191391
 C          1.5017877892        4.7314315447        1.1022759612
 H          2.2891100412        5.3441718331        0.6895149622
 H          1.7548346010        4.2771040934        2.0491955213
 H         -0.1128604296        6.0356381740        0.2999406258
 H         -0.6356747342        4.9598597058        1.6592206725
 H          0.8549072417        4.0363152508       -0.8961115708
 O          1.1888402599        0.4702740364        2.1808148057
