  62
        -98.93398080
 C         -2.2398986288       -1.0864582084        0.3768842996
 C         -2.3677802314       -0.0243116957       -0.5482630832
 C         -3.3331526372        1.0436678256       -0.2061970029
 C         -3.9812322692        0.9855429425        0.9712365885
 C         -5.0298004342        1.9219330932        1.5103078178
 C         -6.4017923054        1.7179309555        0.8478392543
 C         -6.3654563798        1.5623167281       -0.6701555005
 H         -5.7315532295        0.7121281776       -0.9284582676
 H         -7.3788811684        1.3232511873       -1.0031201587
 C         -5.8993859578        2.7957977477       -1.4399477426
 H         -6.0141231682        2.5754589781       -2.5042761556
 H         -6.5563701606        3.6354321558       -1.2024646977
 C         -4.4511153324        3.2279647919       -1.1993950963
 H         -4.1903904277        3.9423926799       -1.9856738846
 H         -4.3505150419        3.7584259176       -0.2562527482
 C         -3.4277069573        2.0996975295       -1.2811848082
 H         -3.5646486356        1.5601950126       -2.2252716430
 H         -2.4254035153        2.5401511512       -1.3466644129
 H         -7.0415446315        2.5607107174        1.1149590270
 H         -6.8468610469        0.8112467378        1.2652913798
 H         -5.1231134002        1.7062532692        2.5771464905
 H         -4.7001578954        2.9516644512        1.4089985360
 O         -3.7714195816       -0.0245050874        1.8653918156
 C         -2.9083140313       -1.0690378404        1.6021714203
 O         -2.8103782524       -1.9018210648        2.5270915905
 H          0.2477602166       -0.5060717169        1.3717197276
 C          0.7131707527       -0.8385097275        0.4502225256
 C          0.0393131880       -1.7527928955       -0.3517233359
 C          0.6480904314       -2.1751411172       -1.5253749753
 C          1.8908657087       -1.6834058079       -1.8858154560
 C          2.5510670960       -0.7656353179       -1.0906788589
 C          1.9527158594       -0.3376153260        0.0874483237
 N          2.6168304826        0.6055524528        0.8973488092
 S          4.1476355473        0.1857803582        1.4528152154
 O          4.2781614896       -1.2456254565        1.6040756965
 O          4.3490013036        0.9781159657        2.6467950958
 C          5.2446764833        0.7669375444        0.1771652316
 C          5.2129111360        2.1090422088       -0.1474444907
 C          6.0640911188        2.5782718015       -1.1351241214
 C          6.9296393080        1.7033296734       -1.7749918283
 C          6.9521996302        0.3595270341       -1.4343042931
 C          6.1023788653       -0.1168116233       -0.4480435517
 H          6.0794956349       -1.1539202665       -0.1539398916
 H          7.6262612921       -0.3186210747       -1.9324060699
 H          7.5903803434        2.0713506787       -2.5439480032
 H          6.0495414408        3.6225718602       -1.4026915684
 H          4.5281636358        2.7549833993        0.3764355977
 H          2.0532789084        0.9382098222        1.6668022634
 H          3.5144257811       -0.3739811074       -1.3736439537
 H          2.3489089852       -2.0157212223       -2.8049054392
 H          0.1417098080       -2.8741776426       -2.1700773285
 C         -1.3007802780       -2.2540029836        0.1300689288
 H         -1.1439516022       -2.7032617521        1.1257361058
 C         -1.8882875090       -3.3498020504       -0.7474181901
 C         -3.3703507174       -3.5555088047       -0.8384191635
 C         -2.6096941455       -3.0520267877       -2.0261860380
 H         -2.4674471814       -3.7214512400       -2.8619845025
 H         -2.7155166169       -2.0167576457       -2.3077303269
 H         -3.7463024740       -4.5675566029       -0.8556037675
 H         -4.0057524881       -2.8642392129       -0.3034896829
 H         -1.2823561890       -4.2505273325       -0.7266907048
 O         -1.7206599316        0.0465338267       -1.6243184577
