  62
        -98.93946067
 C         -2.4596125121       -0.9914015962        0.5281814136
 C         -2.3892980432        0.3170920273       -0.0118306119
 C         -3.5541578638        1.1798224329        0.2494681707
 C         -4.5705170501        0.7175293984        0.9982329692
 C         -5.8365076561        1.4686438646        1.2896794370
 C         -6.9147529425        1.1684353193        0.2389668889
 C         -6.4250637578        1.2977485581       -1.2034814079
 H         -5.6804244127        0.5225142549       -1.3985201442
 H         -7.2772695667        1.0945004589       -1.8556577484
 C         -5.8300708023        2.6693570498       -1.5515476305
 H         -6.2257742850        2.9869857478       -2.5185788669
 H         -6.1460276154        3.4080043664       -0.8140528334
 C         -4.3045869700        2.6888860003       -1.6663351749
 H         -4.0103076598        3.6370432431       -2.1241671729
 H         -3.9781617643        1.8885498310       -2.3354956258
 C         -3.5338390818        2.5594582885       -0.3462881134
 H         -2.4821662284        2.7805375684       -0.5512537034
 H         -3.9060700154        3.2942963865        0.3702367165
 H         -7.2698229995        0.1461933712        0.3894710772
 H         -7.7543185420        1.8465685285        0.4022351608
 H         -6.2014118317        1.1594475794        2.2705918608
 H         -5.6230787666        2.5355060087        1.3120305072
 O         -4.5772165819       -0.5247588571        1.5459902043
 C         -3.5316096824       -1.4046722162        1.3247370573
 O         -3.6663254738       -2.5083373906        1.8901381686
 H          0.6826892842       -1.3385303997       -1.4132273465
 C          0.9196021228       -1.1061901895       -0.3863708614
 C         -0.0064649773       -1.3686972525        0.6099823061
 C          0.3139975887       -1.0312296103        1.9218193663
 C          1.5273842019       -0.4436839074        2.2244774896
 C          2.4465864289       -0.1764395411        1.2250758434
 C          2.1357594556       -0.5057450966       -0.0867243344
 N          3.0560785643       -0.2149376221       -1.1076996318
 S          4.6457192921       -0.7103392873       -0.9217842409
 O          5.1719856407       -0.8101085621       -2.2659724823
 O          4.7365238759       -1.9018079815       -0.1090347160
 C          5.4332021289        0.6542750836       -0.0922535477
 C          5.3246373689        1.9109768408       -0.6547352773
 C          5.9421368129        2.9805416507       -0.0263691578
 C          6.6567933140        2.7762105971        1.1447295467
 C          6.7596162532        1.5076933898        1.6946853884
 C          6.1429678771        0.4336994032        1.0717811718
 H          6.1900059891       -0.5688070419        1.4664497549
 H          7.3157847198        1.3509027399        2.6049754555
 H          7.1364239556        3.6107214903        1.6314954868
 H          5.8636304777        3.9687015965       -0.4505387128
 H          4.7621916429        2.0281637836       -1.5660259215
 H          2.7144861251       -0.4154007231       -2.0361601328
 H          3.3931673926        0.2862945424        1.4524158320
 H          1.7601477211       -0.1878821581        3.2471426096
 H         -0.4073426848       -1.2333437503        2.7024117306
 C         -1.3450231129       -2.0057693523        0.3313917849
 H         -1.5183404316       -2.7688735432        1.1077825015
 C         -1.3940783038       -2.7342899571       -1.0038508905
 C         -2.7085762227       -3.0783816892       -1.6365890347
 C         -1.8091684662       -2.0682020347       -2.2798752327
 H         -1.2986245316       -2.3463452342       -3.1908961463
 H         -2.0860550915       -1.0269224946       -2.2369053019
 H         -2.8175407536       -4.0455361923       -2.1037617742
 H         -3.6040204078       -2.7286024009       -1.1434017664
 H         -0.6130840060       -3.4857554188       -1.0789532644
 O         -1.4203605179        0.7564493927       -0.6821315530
