  62
        -98.94225532
 C          1.2484272400        1.2233277838        0.0771199611
 C          1.5891792450        0.0802587332        0.8344249822
 C          2.6467389489       -0.7916402133        0.2926599140
 C          3.1949568700       -0.4776289381       -0.8957598406
 C          4.3119172734       -1.1910545641       -1.6076841810
 C          5.6918104947       -0.8928490837       -0.9918858844
 C          5.7230649295       -0.8250419658        0.5337520535
 H          6.7058680688       -0.4487476092        0.8295910618
 H          4.9826116343       -0.0990956592        0.8748342797
 C          5.4992805887       -2.1542447719        1.2509210627
 H          6.3092008871       -2.8399674689        0.9911385344
 H          5.5578348607       -1.9616105518        2.3251653854
 C          4.1717910470       -2.8540903793        0.9599402479
 H          4.0832168739       -3.6911370852        1.6591852131
 H          4.1748781551       -3.2854589223       -0.0375714068
 C          2.9277558392       -1.9931359094        1.1620285966
 H          2.0438009696       -2.6382168551        1.0687782187
 H          2.9138870913       -1.6231827766        2.1935753022
 H          6.3971407100       -1.6491159230       -1.3397127814
 H          6.0226772803        0.0770854694       -1.3704478423
 H          4.1101638422       -2.2585158350       -1.6269764880
 H          4.3065575145       -0.8353255068       -2.6403647155
 O          2.8112421143        0.6167521920       -1.6117132704
 C          1.8213635619        1.4756231061       -1.1681175549
 O          1.5532180507        2.4037387976       -1.9552524800
 O          1.0318969529       -0.2047416233        1.9305809146
 C          0.1486917963        2.1369482947        0.5831864122
 C         -1.0731065228        2.0299200097       -0.2980694424
 C         -1.8942744744        3.1079070556       -0.6048170825
 C         -3.0175567877        2.9273749473       -1.3938339213
 C         -3.3611590432        1.6753781509       -1.8711713013
 C         -2.5480138010        0.5897187133       -1.5657838932
 C         -1.4156519804        0.7787582843       -0.7913387534
 H         -0.7776986747       -0.0667907213       -0.5883917740
 N         -2.8481127674       -0.7003976068       -2.0264195741
 S         -2.4972834261       -2.0313088408       -1.0765680034
 O         -1.0785157332       -2.2878428933       -1.0655366545
 O         -3.3213921525       -3.0842139755       -1.6323680886
 C         -3.0945356578       -1.6056996660        0.5498798553
 C         -4.4657966598       -1.5774223021        0.7238658178
 C         -4.9821293990       -1.2125116788        1.9554761960
 C         -4.1216369246       -0.8763795773        2.9901796935
 C         -2.7496571481       -0.9135641826        2.8013099996
 C         -2.2256378704       -1.2818808295        1.5711720469
 H         -1.1591163079       -1.3119697729        1.4102743880
 H         -2.0714413766       -0.6545879090        3.5988166320
 H         -4.5211182400       -0.5871916541        3.9494145043
 H         -6.0494612027       -1.1888150158        2.1049768262
 H         -5.0995608851       -1.8590387668       -0.1013039835
 H         -3.7360644093       -0.7937041512       -2.4965852700
 H         -4.2401301371        1.5381439781       -2.4818568902
 H         -3.6410490106        3.7749687066       -1.6342881453
 H         -1.6504830282        4.0898098438       -0.2337486958
 H         -0.1251386437        1.7387504642        1.5728662173
 C          0.6511653832        3.5552800805        0.7515194734
 C          0.0906405219        4.4345271100        1.8282734070
 C          1.4804249845        3.8895535453        1.9543558993
 H          2.3156573737        4.5628846498        1.8338199348
 H          1.6580371952        3.0988928428        2.6688761674
 H         -0.0272198624        5.4879496950        1.6235404916
 H         -0.6741579736        4.0188966887        2.4666912864
 H          0.9316766539        4.0110964624       -0.1910265613
