  62
        -98.93617060
 C          1.7746312882        1.0153129929        0.5313477105
 C          2.7145789108        1.0178078359       -0.5275016441
 C          4.0366286454        0.4450655637       -0.2179813057
 C          4.2660880032       -0.0675016586        1.0038428722
 C          5.5291607886       -0.7527820747        1.4418775118
 C          5.5779005715       -2.1861788409        0.8753658738
 C          6.7012360600       -2.4269912311       -0.1333294814
 H          7.6479594833       -2.5142817122        0.4039848942
 H          6.5068186394       -3.3872770957       -0.6158766723
 C          6.8713859941       -1.3522882610       -1.2113888595
 H          7.4163298784       -0.5017924666       -0.7989575185
 H          7.5067500707       -1.7807493074       -1.9894933809
 C          5.5779374833       -0.8400301494       -1.8581056639
 H          4.7850925795       -1.5839073337       -1.7758646472
 H          5.7664364055       -0.6943059145       -2.9237139177
 C          5.0742214638        0.5060539619       -1.3049105876
 H          5.9254880295        1.1008569710       -0.9622763862
 H          4.5933379385        1.0573110618       -2.1183045088
 H          5.6959325937       -2.8976004383        1.6942387328
 H          4.6148126603       -2.4033304711        0.4082558129
 H          6.3920677971       -0.1803044016        1.1088415084
 H          5.5248061216       -0.7755757578        2.5318726355
 O          3.3226978629       -0.0907001883        1.9816167057
 C          2.0638403781        0.4414761681        1.7717014298
 O          1.2978541078        0.3477968343        2.7530793238
 O          2.4829708146        1.4789920290       -1.6747379060
 C          0.3716406568        1.5811344195        0.3707838442
 C         -0.4652701441        0.5943447197       -0.4059904112
 C         -0.5791645350        0.6263853244       -1.7903080082
 C         -1.3556906530       -0.3107125071       -2.4497680385
 C         -2.0419131901       -1.2848604449       -1.7466470629
 C         -1.9304397475       -1.3256336894       -0.3631226864
 C         -1.1447878383       -0.3926804103        0.2961721992
 H         -1.0473614632       -0.4322580192        1.3736866720
 N         -2.6743656085       -2.2844349042        0.3608619973
 S         -4.3380628139       -2.1117285591        0.1939840974
 O         -4.9158521561       -2.6829409428        1.3897662985
 O         -4.7511795702       -2.7021564945       -1.0536950063
 C         -4.5813413072       -0.3448653021        0.1456402645
 C         -4.4452177114        0.3631625796        1.3232101364
 C         -4.5234031947        1.7457981549        1.2872328854
 C         -4.7245413007        2.3937674632        0.0778942859
 C         -4.8629443135        1.6682417118       -1.0949918080
 C         -4.7891460972        0.2850153597       -1.0646168513
 H         -4.8897750146       -0.3159423847       -1.9531075526
 H         -5.0195397109        2.1756207153       -2.0329783148
 H         -4.7737135197        3.4710613582        0.0507721657
 H         -4.4181684817        2.3122304998        2.1989620864
 H         -4.2901004797       -0.1747230282        2.2451785996
 H         -2.4325299191       -2.3072712318        1.3418982011
 H         -2.6679628592       -2.0094218987       -2.2422522906
 H         -1.4322547672       -0.2786611301       -3.5258239113
 H         -0.0391679728        1.3738446618       -2.3476055854
 H         -0.0405192850        1.6323376831        1.3875092430
 C          0.3476967875        2.9726854938       -0.2264094278
 C         -0.9373661736        3.7427415161       -0.1862189265
 C          0.2117005715        4.1552657974        0.6825123737
 H          0.7491114733        5.0583054916        0.4344683306
 H          0.1449261074        3.9667521231        1.7442884361
 H         -1.1918324247        4.3641554893       -1.0305799036
 H         -1.7853748239        3.2655193228        0.2822938479
 H          0.9814363430        3.0850464356       -1.0956132461
