  62
        -98.94754405
 C         -1.3324281408       -1.6300354027       -0.5016282356
 C         -1.1927727000       -0.3196656213       -1.0238563813
 C         -2.3808447586        0.5431366882       -0.9198234353
 C         -3.5088212984        0.0633222065       -0.3682225618
 C         -4.7782065913        0.8414922366       -0.1777369782
 C         -4.8236565659        1.5151601231        1.2000320322
 C         -3.5584912984        2.3005993298        1.5460566220
 H         -3.7221025528        2.7708094126        2.5185440903
 H         -2.7207754096        1.6084770428        1.6654934090
 C         -3.1756155974        3.3736009237        0.5178428941
 H         -4.0354473766        3.6126220302       -0.1098398528
 H         -2.8991877121        4.2848452010        1.0528460802
 C         -1.9838757222        2.9984979590       -0.3655509920
 H         -1.1679848267        2.6400967431        0.2688686931
 H         -1.6412985320        3.9059245736       -0.8721681034
 C         -2.2587842611        1.9449876538       -1.4469961687
 H         -3.1491218300        2.2240413267       -2.0150515744
 H         -1.4026998153        1.9339832046       -2.1279886267
 H         -5.6866226629        2.1832463989        1.2292918224
 H         -4.9651040688        0.7431963133        1.9599813143
 H         -4.8589562166        1.5909021765       -0.9626761512
 H         -5.6183740385        0.1495618981       -0.2603416628
 O         -3.6108319759       -1.2011807638        0.1146847842
 C         -2.5287935415       -2.0624048266        0.0787574866
 O         -2.7574058118       -3.1846518969        0.5759316967
 H          1.2495539417       -0.4508384312        0.0224524641
 C          1.3900702695       -1.2033740802        0.7798674972
 C          0.7140816614       -2.4101380319        0.6759175615
 C          0.8960862907       -3.3663799694        1.6679704776
 C          1.7293489148       -3.1112354921        2.7430921575
 C          2.3815894445       -1.8964971285        2.8568009828
 C          2.2036435344       -0.9338795911        1.8693027386
 N          2.8549195575        0.3056455433        1.9349247791
 S          2.0970055432        1.6760713680        1.3375606994
 O          2.7937055411        2.7743324459        1.9802867386
 O          0.6707073652        1.6372699335        1.5661465137
 C          2.4870242016        1.7163132366       -0.3990309351
 C          3.5243972988        0.9548131265       -0.8969172188
 C          3.8264288374        1.0393555730       -2.2466498094
 C          3.0963300979        1.8822650674       -3.0693253760
 C          2.0640049459        2.6469314246       -2.5508471149
 C          1.7560737576        2.5660670132       -1.2029144550
 H          0.9523384123        3.1353187448       -0.7651820740
 H          1.4919413932        3.2994237905       -3.1912740262
 H          3.3291339271        1.9401999985       -4.1211730663
 H          4.6268842840        0.4415587648       -2.6527167576
 H          4.0670722152        0.2984821921       -0.2367852764
 H          3.3569077537        0.4919357722        2.7903926672
 H          3.0187163174       -1.6908448690        3.7035886276
 H          1.8625948025       -3.8610077110        3.5083208093
 H          0.3653027582       -4.3049377637        1.6017756059
 C         -0.2090497548       -2.6575507062       -0.4927379138
 H         -0.6968538188       -3.6292873449       -0.3358769270
 C          0.5703303205       -2.7149809456       -1.7924336680
 C          1.3342608862       -3.9600354614       -2.1246372706
 C          0.0952541264       -3.6126214630       -2.8931901005
 H          0.1951144392       -3.2726515818       -3.9128787821
 H         -0.7973996949       -4.1944976814       -2.7133166781
 H          2.2890119764       -3.8611281034       -2.6173120850
 H          1.2818963207       -4.7814892588       -1.4260744421
 H          1.0023479587       -1.7648327521       -2.0765433426
 O         -0.1489680705        0.1283263453       -1.5677410138
