  62
        -98.94760768
 C          2.5312865727       -0.2843624267       -0.0089367587
 C          2.2195999999       -1.2941623052        0.9312577156
 C          1.5880738165       -2.5050412483        0.3932401963
 C          1.3642381231       -2.5960871083       -0.9303406465
 C          0.7286673036       -3.7723146172       -1.6140207706
 C         -0.7879991784       -3.5975898277       -1.7604047552
 C         -1.4996342385       -3.2052718389       -0.4653909978
 H         -1.2138614645       -2.1856026758       -0.1958214196
 H         -2.5710219619       -3.1825137770       -0.6805837187
 C         -1.2388366493       -4.1390530116        0.7241838655
 H         -2.1861808093       -4.3174161807        1.2370753833
 H         -0.8730722711       -5.1033569873        0.3681543292
 C         -0.2699708673       -3.5772110033        1.7669084989
 H         -0.5602360955       -2.5512092837        2.0114838330
 H         -0.3657670021       -4.1735860213        2.6785859119
 C          1.2125831987       -3.5826050726        1.3706364402
 H          1.4890871926       -4.5677756302        0.9881032070
 H          1.8008068318       -3.3856925660        2.2719186976
 H         -0.9763445897       -2.8114372459       -2.4952597402
 H         -1.2057195964       -4.5325443873       -2.1399656688
 H          1.1695883437       -3.8648240038       -2.6084760687
 H          0.9475725241       -4.6740785379       -1.0448204384
 O          1.6901181057       -1.6115715690       -1.8062405236
 C          2.2301884934       -0.4140604338       -1.3647149572
 O          2.4194153416        0.4270410308       -2.2651784144
 O          2.4666652208       -1.1884986131        2.1649282712
 C          3.0883875571        1.0377689128        0.4911235507
 C          2.0609304197        2.1145673499        0.2376082523
 C          2.3489269765        3.3573981876       -0.3102658018
 C          1.3297017790        4.2601882643       -0.5644561298
 C          0.0103839274        3.9387114659       -0.3027954514
 C         -0.2843799927        2.7037789190        0.2640877328
 C          0.7412091523        1.8223421128        0.5557736864
 H          0.5000335085        0.8686780467        1.0025865581
 N         -1.6067621621        2.3162581041        0.5517055552
 S         -1.9689648901        0.6843539637        0.2693183793
 O         -1.6351882331       -0.0726392045        1.4499285119
 O         -1.3701002716        0.2542962995       -0.9730673962
 C         -3.7426092829        0.7683960332        0.1042633532
 C         -4.2999601883        0.8515464474       -1.1575807215
 C         -5.6771797323        0.9536778525       -1.2769721438
 C         -6.4686788241        0.9743791100       -0.1383598666
 C         -5.8948402925        0.8882016630        1.1214906752
 C         -4.5186702316        0.7839501582        1.2477343270
 H         -4.0272519700        0.7042894694        2.2033213367
 H         -6.5134364547        0.9006718209        2.0042086277
 H         -7.5398776618        1.0550078013       -0.2339782838
 H         -6.1256284327        1.0162240150       -2.2553493458
 H         -3.6438237076        0.8228254079       -2.0130410377
 H         -2.2918550477        2.9241139712        0.1225243396
 H         -0.7837570559        4.6318442172       -0.5354770975
 H          1.5654407386        5.2209355549       -0.9966767212
 H          3.3672826576        3.6132684305       -0.5533632601
 H          3.1986571772        0.9154765922        1.5795397933
 C          4.4449565408        1.3332741437       -0.1100570413
 C          5.4354589222        2.1707652290        0.6411027941
 C          5.6592638642        0.6966285639        0.4945328648
 H          6.4428616280        0.3540745200       -0.1642543432
 H          5.5085152477        0.0659730027        1.3586385941
 H          6.0710780078        2.8415538369        0.0831646486
 H          5.1406828083        2.5433432789        1.6104521531
 H          4.4098734361        1.4205869885       -1.1899682301
