  62
        -98.94037344
 C         -0.6109156259       -1.7112801242       -0.6708212934
 C         -1.7876167699       -1.8915803600        0.0959578823
 C         -2.8775587855       -0.9151200277       -0.0835553660
 C         -2.7012819261        0.0900712667       -0.9599972897
 C         -3.6496433476        1.2117177747       -1.2921374648
 C         -3.6753140495        2.3118872668       -0.2170276948
 C         -3.6358067104        1.8082202453        1.2238337503
 H         -2.7501410985        1.1833423137        1.3632390029
 H         -3.5096409142        2.6772269871        1.8762665481
 C         -4.8843109721        1.0583811357        1.6837422535
 H         -4.7348333284        0.7919755656        2.7333329982
 H         -5.7418820360        1.7337705468        1.6311977129
 C         -5.2291176550       -0.2153735175        0.9110630737
 H         -5.6420156879        0.0236117651       -0.0651783235
 H         -6.0201411293       -0.7271240766        1.4674151111
 C         -4.0823806618       -1.2123751378        0.7751096193
 H         -3.6859851232       -1.4371564156        1.7720630670
 H         -4.4883643991       -2.1617831748        0.4041999105
 H         -2.8004754365        2.9511613329       -0.3613423605
 H         -4.5664532200        2.9242362622       -0.3665477914
 H         -3.3025825373        1.6496620127       -2.2305460245
 H         -4.6455231008        0.8125594867       -1.4625056547
 O         -1.5524832779        0.2315464023       -1.6751588093
 C         -0.4765577705       -0.6296664951       -1.5408476131
 O          0.5001863836       -0.3140256660       -2.2481528295
 H          1.4153600101       -0.1669252148       -0.0311154027
 C          1.7630667321       -0.8404199708        0.7350759796
 C          1.4211373213       -2.1825850841        0.6825605142
 C          1.9074499673       -3.0313659679        1.6703252660
 C          2.6993506711       -2.5391740250        2.6925604007
 C          2.9911553723       -1.1887579924        2.7708641803
 C          2.5093341928       -0.3336113552        1.7873369529
 N          2.7497753832        1.0479000091        1.8273706244
 S          1.5112860203        2.0821966232        1.3653125089
 O          1.8067411714        3.3233103033        2.0553254572
 O          0.2107967309        1.5135290282        1.6359107063
 C          1.7407869318        2.3484554072       -0.3776003486
 C          3.0101975717        2.2988259246       -0.9165976239
 C          3.1705721269        2.5587466415       -2.2676656406
 C          2.0687559090        2.8691843164       -3.0491443233
 C          0.8021829875        2.9205541534       -2.4907467761
 C          0.6349632363        2.6591909278       -1.1412717380
 H         -0.3359103832        2.6649113284       -0.6701667172
 H         -0.0571979044        3.1482654728       -3.1008978217
 H          2.1952026824        3.0635275388       -4.1026348053
 H          4.1535137996        2.5116944982       -2.7086352309
 H          3.8430154358        2.0443473217       -0.2821026260
 H          3.2270268451        1.3793436089        2.6533245306
 H          3.5771539835       -0.7971533764        3.5883363064
 H          3.0715902567       -3.2087531185        3.4529617609
 H          1.6450886485       -4.0783913357        1.6460057086
 C          0.5188416723       -2.6933282795       -0.4178566922
 H          0.0364625939       -3.6097894393       -0.0496456735
 C          1.3335332289       -3.0388336275       -1.6486853612
 C          2.0403690844       -4.3580298840       -1.7169103525
 C          0.8428320046       -4.1036072768       -2.5813303852
 H          0.9860023189       -3.9622792946       -3.6417414412
 H         -0.0831121691       -4.5997857030       -2.3287911819
 H          1.9259392411       -5.0350875372       -0.8843064453
 H          3.0126834166       -4.3949566035       -2.1831309431
 H          1.8225474304       -2.1798484011       -2.0889223360
 O         -1.9294985340       -2.8471007022        0.9089041960
