  62
        -98.93699043
 C         -2.0031313859       -1.0406097125        0.1858566825
 C         -2.6975653977       -0.1705280757        1.0624825020
 C         -4.1070435601        0.1313322109        0.7503691260
 C         -4.6577873461       -0.4288928067       -0.3424991522
 C         -6.0535780310       -0.2598590225       -0.8817942559
 C         -6.2586300588        1.0883188098       -1.5893584951
 C         -5.6942039338        2.2946036448       -0.8440946637
 H         -4.6220241453        2.1543518175       -0.6945994435
 H         -5.8190181115        3.1701164982       -1.4868754690
 C         -6.3591374012        2.6003924309        0.4960679602
 H         -7.4285234642        2.7570395624        0.3381807002
 H         -5.9366514743        3.5408842965        0.8591604682
 C         -6.1768262415        1.5466506522        1.5913139986
 H         -6.4639756338        2.0109553273        2.5393326423
 H         -6.8486095638        0.7049951067        1.4452307434
 C         -4.7448950459        1.0503363849        1.7642444598
 H         -4.0744329772        1.9124561505        1.8584354546
 H         -4.6712874856        0.5242474511        2.7237165834
 H         -7.3274739965        1.2293382251       -1.7590031980
 H         -5.7658782948        1.0379254192       -2.5634414301
 H         -6.2057851157       -1.0602850745       -1.6093098230
 H         -6.7809698483       -0.3930499393       -0.0865303291
 O         -3.9489646795       -1.2489443165       -1.1667474378
 C         -2.6226611143       -1.5726333723       -0.9447155376
 O         -2.1429519055       -2.3282294540       -1.8118819888
 H          1.0069545607        0.6388277786        1.4428628515
 C          1.1401373389        0.4844723340        0.3804070179
 C          0.3917460117       -0.4899836871       -0.2643901816
 C          0.5608012924       -0.6643497346       -1.6337416516
 C          1.4538539565        0.1257231048       -2.3349337718
 C          2.2021580144        1.0937648171       -1.6881178213
 C          2.0409910604        1.2742526010       -0.3212421487
 N          2.8279983624        2.2344017855        0.3447542180
 S          4.4868442590        2.0730215136        0.1469759182
 O          5.0755569280        2.6737284554        1.3227835636
 O          4.8769622775        2.6430942258       -1.1175094707
 C          4.7538220710        0.3091235706        0.1324998462
 C          4.5632775862       -0.3847490684        1.3112597756
 C          4.6857914907       -1.7643226200        1.3046378114
 C          4.9873661156       -2.4240335009        0.1229637891
 C          5.1800744575       -1.7129788678       -1.0508014594
 C          5.0604607965       -0.3323867590       -1.0498530732
 H          5.2020151599        0.2573842416       -1.9404280400
 H          5.4166671341       -2.2289005774       -1.9672810467
 H          5.0740828332       -3.4990250864        0.1191287937
 H          4.5411611639       -2.3209619342        2.2168381625
 H          4.3355489318        0.1619284866        2.2125534871
 H          2.5970001914        2.3337470535        1.3229908866
 H          2.9073555580        1.7131549780       -2.2185849725
 H          1.5712399127       -0.0156772457       -3.3985533374
 H         -0.0274978773       -1.4113752458       -2.1434130526
 C         -0.5577271146       -1.3504951758        0.5342508430
 H         -0.4553354236       -1.0632692655        1.5894853808
 C         -0.1944389680       -2.8165124845        0.3997974934
 C          1.0563266648       -3.3070858367        1.0636333124
 C         -0.2844223193       -3.7082375309        1.5998321257
 H         -0.6148083354       -4.7264790888        1.4596752810
 H         -0.6174242756       -3.2669596762        2.5281307410
 H          1.6504715042       -4.0497844494        0.5548933487
 H          1.6356751579       -2.5892520846        1.6245909288
 H         -0.4593674548       -3.2423827332       -0.5583889479
 O         -2.1602920341        0.3395878785        2.0839086727
