  62
        -98.93657272
 C         -2.2214678299       -1.3712425511        0.4590708099
 C         -2.4752915604       -0.5401289909       -0.6556824299
 C         -3.3822398105        0.6037658089       -0.4327428994
 C         -3.8589177601        0.8303990386        0.8043613508
 C         -4.7939063702        1.9156879783        1.2756120313
 C         -4.5238043205        3.3356487985        0.7545113215
 C         -5.5722950609        3.8261390585       -0.2455796381
 H         -6.5559153108        3.4917516083        0.0906035622
 H         -5.5786064611        4.9183277485       -0.2368450278
 C         -5.3523251713        3.3775002288       -1.6891886482
 H         -6.2326139515        3.6731424388       -2.2647256379
 H         -4.4962467715        3.9118261490       -2.1070467084
 C         -5.1230734311        1.8768952489       -1.8799822286
 H         -5.3833834614        1.6281942391       -2.9108832585
 H         -5.7893336908        1.3038278687       -1.2362484285
 C         -3.6679182410        1.4417496091       -1.6489139491
 H         -3.3280484011        0.8300677293       -2.4906436193
 H         -3.0115679111        2.3172023592       -1.6349718891
 H         -3.5277428307        3.3876728887        0.3167393812
 H         -4.5340248604        4.0117243183        1.6111343117
 H         -4.7180207598        1.9002397281        2.3653020313
 H         -5.8171864402        1.6200821282        1.0310761016
 O         -3.5447948597        0.0274353984        1.8624505706
 C         -2.7337271396       -1.0832786714        1.7222670901
 O         -2.5366584692       -1.7156222216        2.7805302399
 O         -1.9778203907       -0.7428365706       -1.7941169800
 C         -1.3273562698       -2.5907317009        0.3174084994
 C          0.0617139500       -2.1604485207       -0.0894360809
 C          0.7513552698       -2.6978014603       -1.1674712613
 C          2.0194835696       -2.2408878101       -1.4839809316
 C          2.6292061497       -1.2537965801       -0.7322567715
 C          1.9497593800       -0.7119570705        0.3515048288
 C          0.6793005701       -1.1692482807        0.6641048891
 H          0.1474882403       -0.7446309310        1.5078138693
 N          2.5672410400        0.2767832295        1.1382635788
 S          3.2499760096        1.6016076197        0.3636375388
 O          3.2513764297        2.6553144395        1.3556028190
 O          2.5817168692        1.8940938299       -0.8832900509
 C          4.9287377796        1.0922378000        0.0582663582
 C          5.4345623792        1.1179355204       -1.2266158919
 C          6.7456532292        0.7201279006       -1.4384458424
 C          7.5233743396        0.3073648105       -0.3674681727
 C          7.0012115300        0.2907610602        0.9174340674
 C          5.6919272000        0.6882254100        1.1362366279
 H          5.2492560103        0.6941903297        2.1182695580
 H          7.6090566403       -0.0303592999        1.7479396872
 H          8.5425299996       -0.0032529193       -0.5351463231
 H          7.1532486689        0.7332520209       -2.4364872125
 H          4.7903268289        1.4412014904       -2.0288477917
 H          2.0040936202        0.5783178992        1.9204806390
 H          3.6150569896       -0.8950268700       -0.9782853218
 H          2.5415485294       -2.6617828499       -2.3296008818
 H          0.2928953397       -3.4662231403       -1.7673507113
 H         -1.2614156894       -3.0330242511        1.3223796193
 C         -1.9542551199       -3.6011236409       -0.6194171406
 C         -1.6338235696       -5.0576854208       -0.4758464210
 C         -2.9847885996       -4.5449050411       -0.0794011805
 H         -3.8341900998       -4.7900328011       -0.6990623903
 H         -3.2192368593       -4.4740610014        0.9730473296
 H         -1.5578246598       -5.6596973307       -1.3685946111
 H         -0.9507854594       -5.3436012709        0.3095729288
 H         -2.1129628403       -3.2042856507       -1.6152083605
