  62
        -98.93638777
 C         -1.7781776185       -0.9580777792       -0.1710471396
 C         -2.3087408336        0.2900811961       -0.5820456458
 C         -3.7767110081        0.4040182435       -0.5783618815
 C         -4.5206154174       -0.6185137989       -0.1226995640
 C         -6.0171591734       -0.6142766138       -0.0106092354
 C         -6.4687636143       -0.1180859617        1.3699736106
 C         -5.7983683554        1.1844127506        1.8072037693
 H         -6.2153346707        1.4547921673        2.7798633921
 H         -4.7308187353        1.0047797941        1.9552012854
 C         -5.9829627311        2.3531519130        0.8291777515
 H         -6.8162546880        2.1456096456        0.1568624367
 H         -6.2411368923        3.2484725703        1.3987669048
 C         -4.7400615003        2.6938677278        0.0045753083
 H         -3.8791467811        2.8111639844        0.6679826090
 H         -4.9093801547        3.6580070741       -0.4825387964
 C         -4.3681970792        1.6869002410       -1.0912248400
 H         -5.2403933120        1.4854295231       -1.7165648121
 H         -3.5949522401        2.1469216652       -1.7134127697
 H         -7.5517424537        0.0166979908        1.3520247774
 H         -6.2337419727       -0.8879072440        2.1085517578
 H         -6.4323228158        0.0207722188       -0.7906753919
 H         -6.3759764029       -1.6347102076       -0.1548109018
 O         -3.9741876401       -1.7642194773        0.3536802397
 C         -2.5985598868       -1.9538534059        0.3712270723
 O         -2.2507624551       -3.0258482270        0.8964829750
 O         -1.6098513314        1.2762259604       -0.9334847348
 C         -0.2750232409       -1.2120233137       -0.1612361673
 C          0.5023324002       -0.2195807992       -0.9880217714
 C          0.4487117589       -0.2467432480       -2.3790978425
 C          1.2377434142        0.6040826262       -3.1260882632
 C          2.1227316595        1.4722743855       -2.5088887180
 C          2.1914983864        1.4995274000       -1.1223586679
 C          1.3883543922        0.6511328562       -0.3731306761
 H          1.4322634604        0.7055428590        0.7044473192
 N          3.0802289144        2.3622418106       -0.4648708762
 S          3.7853898913        1.9075516174        0.9731893355
 O          2.8586457785        2.0640899607        2.0670880815
 O          4.9900629365        2.7060996235        1.0535121147
 C          4.2159463564        0.1849123958        0.7836259210
 C          3.7793936925       -0.7343822817        1.7157544106
 C          4.1298434959       -2.0664231350        1.5626657220
 C          4.9058211510       -2.4555446072        0.4818833558
 C          5.3392980702       -1.5202008155       -0.4453980467
 C          4.9943031697       -0.1867856262       -0.2949217908
 H          5.3233081099        0.5638074650       -0.9946794354
 H          5.9417797563       -1.8263207139       -1.2851739365
 H          5.1693236224       -3.4941642741        0.3615647817
 H          3.7909479604       -2.7954606965        2.2812475346
 H          3.1717894650       -0.3910337162        2.5382948011
 H          3.7086487104        2.8775287967       -1.0622615671
 H          2.7430816380        2.1338607478       -3.0941583323
 H          1.1739496144        0.5877705518       -4.2037314248
 H         -0.2382763941       -0.9220542195       -2.8668842786
 H          0.0720170019       -1.1282166797        0.8816913710
 C          0.0628784682       -2.6140745800       -0.6636998117
 C          1.4994231487       -2.9927698694       -0.8822340288
 C          0.7223125946       -3.6113912503        0.2359572694
 H          0.4174394014       -4.6434149302        0.1602130079
 H          0.9381072173       -3.2989570393        1.2460455941
 H          1.7423815224       -3.6011990715       -1.7394513583
 H          2.2514872853       -2.2583517356       -0.6359756192
 H         -0.6611693702       -3.0033397796       -1.3702201036
