  62
        -98.94311621
 C         -1.4907621819       -1.3653492322       -0.3270235674
 C         -1.5803015402        0.0190173949       -0.6189447534
 C         -2.6708527193        0.7422011031        0.0527687313
 C         -3.4770160551        0.1026707259        0.9169400927
 C         -4.6075603414        0.7146216406        1.6991742111
 C         -5.9239542610        0.8226166390        0.9171130392
 C         -5.9503181306        1.8961913565       -0.1716919567
 H         -6.9906015353        2.0109051400       -0.4827474469
 H         -5.6300517046        2.8484603994        0.2522545914
 C         -5.0991024814        1.5678302595       -1.4061494197
 H         -4.8682476519        0.5001288091       -1.4145903486
 H         -5.6734254294        1.7794315727       -2.3108519212
 C         -3.7928829585        2.3563047924       -1.5030874831
 H         -4.0140258324        3.4188502038       -1.6259933859
 H         -3.2529837125        2.0190278085       -2.3913216934
 C         -2.8660263426        2.1877159762       -0.2923068053
 H         -1.8864913364        2.6042950746       -0.5408934160
 H         -3.2615951616        2.7315620196        0.5655957382
 H         -6.1469611176       -0.1510788256        0.4747874596
 H         -6.7125654192        1.0482232327        1.6386792081
 H         -4.7718804619        0.0671245560        2.5634574010
 H         -4.3113205848        1.7010845580        2.0580256014
 O         -3.3373011827       -1.2205165258        1.2001352633
 C         -2.3555861886       -1.9776475637        0.5836639745
 O         -2.3550636947       -3.1803396975        0.9194302977
 H          0.7265253935       -0.2624770464        0.4713421878
 C          1.2522516666       -1.1935746828        0.5983961613
 C          0.7878511275       -2.3391869635       -0.0311538069
 C          1.4636826165       -3.5364559376        0.1761042809
 C          2.5837989727       -3.5778983450        0.9872270006
 C          3.0447499069       -2.4333076012        1.6113070546
 C          2.3645544506       -1.2330027497        1.4268023858
 N          2.7787334117       -0.0807466002        2.0983373278
 S          2.4090468532        1.4811770028        1.6489007464
 O          3.1823303238        2.2844847063        2.5732728373
 O          0.9841461056        1.6922285073        1.6678503700
 C          3.0896388616        1.6821001419        0.0129537133
 C          2.2826166140        1.6924451010       -1.1053990454
 C          2.8760037542        1.8508157362       -2.3498551762
 C          4.2503965718        1.9855496429       -2.4565886378
 C          5.0473811340        1.9698768475       -1.3211282971
 C          4.4631295470        1.8189896621       -0.0754487815
 H          5.0427569383        1.8248675500        0.8332747632
 H          6.1169650425        2.0769524786       -1.4039034744
 H          4.7020138428        2.1057079465       -3.4287139688
 H          2.2504810083        1.8644241474       -3.2278471060
 H          1.2145317326        1.5711772359       -1.0102663240
 H          3.6487431540       -0.1489629055        2.6024324145
 H          3.9110192875       -2.4677414009        2.2537911830
 H          3.1006094044       -4.5129208389        1.1410317094
 H          1.0932031988       -4.4410270843       -0.2832759214
 C         -0.4327004474       -2.2829398550       -0.9172430901
 H         -0.8837966010       -3.2887543346       -0.9112909098
 C         -0.0888765843       -1.9485283523       -2.3628000763
 C          1.2086370341       -1.3274408443       -2.7735182641
 C          0.9295440722       -2.7597987943       -3.1082165810
 H          0.7247308544       -3.0217373496       -4.1352181774
 H          1.4692005628       -3.5150606348       -2.5583415423
 H          1.9338632586       -1.1109994914       -2.0041615711
 H          1.1821848558       -0.5930367558       -3.5629430723
 H         -0.9665416367       -1.6417012292       -2.9221216834
 O         -0.8100371653        0.6386845911       -1.3951467392
