  62
        -98.94039270
 C         -1.8092258639       -0.8781502767       -0.8110885243
 C         -2.0290530154       -0.3292227587        0.4767274761
 C         -3.4378416137       -0.1826698834        0.8720615194
 C         -4.4160342117       -0.6131429501        0.0562534214
 C         -5.8937833086       -0.5554392429        0.3335916548
 C         -6.5411800868        0.7937623841       -0.0072964197
 C         -6.2016366415        1.9380059945        0.9487146807
 H         -6.8867150373        2.7575898602        0.7227054733
 H         -6.3983624370        1.6232212812        1.9740663287
 C         -4.7602051042        2.4532620175        0.8333734371
 H         -4.3275128926        2.1157993912       -0.1112338357
 H         -4.7650130184        3.5452525058        0.8101968248
 C         -3.8414446844        2.0280341800        1.9788998895
 H         -4.1930775353        2.4703670777        2.9135767010
 H         -2.8402546653        2.4175318883        1.7779825961
 C         -3.7302814315        0.5094888641        2.1690719398
 H         -2.8973611140        0.3073827279        2.8469556566
 H         -4.6456061997        0.1177448562        2.6122288917
 H         -7.6237498891        0.6474682623        0.0047926423
 H         -6.2554787420        1.0713749152       -1.0246217655
 H         -6.0797422701       -0.7953950150        1.3808911021
 H         -6.3563875024       -1.3260093524       -0.2870552474
 O         -4.1602483363       -1.1935138487       -1.1469913305
 C         -2.8618800675       -1.3281588848       -1.6119321170
 O         -2.7754381428       -1.8700198009       -2.7324209794
 O         -1.1133951222        0.0212253663        1.2634481699
 C         -0.4078141892       -1.0749529152       -1.3623359161
 C          0.4825544999       -1.6883318042       -0.3096641097
 C          0.0954907212       -2.8942740187        0.2708534762
 C          0.8736747769       -3.4945268096        1.2401134480
 C          2.0702328137       -2.9198297394        1.6333660474
 C          2.4703849029       -1.7235645679        1.0539949315
 C          1.6750244790       -1.1117664632        0.0947477373
 H          1.9939595518       -0.1709810533       -0.3202492336
 N          3.6732331252       -1.1053481742        1.4290795508
 S          4.6541349257       -0.4504084836        0.2430720504
 O          4.5591949479       -1.1914798373       -0.9936729257
 O          5.9692556165       -0.3911771341        0.8461365915
 C          4.0589193629        1.2107020654        0.0089599488
 C          3.9691234933        1.7170748476       -1.2725749987
 C          3.5494963277        3.0262645371       -1.4491008303
 C          3.2293889331        3.8023729965       -0.3455125264
 C          3.3249494991        3.2783631362        0.9347723824
 C          3.7473369408        1.9715116973        1.1180946003
 H          3.8319810551        1.5321277536        2.0978153340
 H          3.0705438781        3.8837807923        1.7897342250
 H          2.8998201971        4.8199494584       -0.4852241380
 H          3.4719861891        3.4342002735       -2.4445796801
 H          4.2178506363        1.0748629775       -2.1025795311
 H          4.2094532640       -1.6038201982        2.1242314984
 H          2.6843493333       -3.3908535121        2.3861076773
 H          0.5532539785       -4.4233542907        1.6881581533
 H         -0.8354227983       -3.3484892548       -0.0424958790
 H         -0.5216466743       -1.8168074094       -2.1709662832
 C          0.1889714104        0.1719917799       -1.9986506859
 C         -0.6878505097        1.2235732012       -2.6086023712
 C          0.0816648364        1.5225747434       -1.3590174146
 H          0.9299890458        2.1881202598       -1.4238169800
 H         -0.4533465727        1.5878586849       -0.4254889583
 H         -0.3701692466        1.6803391438       -3.5337545014
 H         -1.7571826007        1.0868499559       -2.5349658520
 H          1.1130334979       -0.0472417359       -2.5262540037
