  62
        -98.94445055
 C          1.3411025945        1.5305171364       -0.1441518820
 C          1.3419965911        0.1136514243       -0.1471881392
 C          2.5111813083       -0.5233880285        0.4756752566
 C          3.4919340723        0.2305303887        1.0018182417
 C          4.7375159941       -0.2776351676        1.6758272131
 C          5.8638095256       -0.6519034024        0.7022457739
 C          5.6376176144       -1.9374939531       -0.0948531098
 H          6.5901551993       -2.1945718542       -0.5626846990
 H          5.3825551410       -2.7470737862        0.5894852613
 C          4.5654607530       -1.8267911663       -1.1881692695
 H          4.3700950142       -0.7732068948       -1.4010351402
 H          4.9404292724       -2.2745318518       -2.1113842431
 C          3.2434443252       -2.5170151963       -0.8515925601
 H          3.4043615884       -3.5941089581       -0.7705451019
 H          2.5449758660       -2.3391561950       -1.6727726648
 C          2.5863573302       -2.0200408533        0.4421089973
 H          1.5629917723       -2.4007721713        0.4756550763
 H          3.1316312479       -2.3924070013        1.3087459016
 H          6.0208783695        0.1813141776        0.0132448497
 H          6.7763481276       -0.7712824034        1.2910561015
 H          5.0935336928        0.5290187021        2.3202615173
 H          4.4929268110       -1.1379836550        2.2992875297
 O          3.4513706615        1.5898772739        0.9914324754
 C          2.3883758844        2.2660800710        0.4187106181
 O          2.4909757736        3.5091074158        0.4688766416
 H         -1.6230512803        0.3556264891       -0.3334078880
 C         -1.8200659044        1.2214677959        0.2757795901
 C         -0.9837228999        2.3263440800        0.1985595250
 C         -1.2363471619        3.4163842539        1.0251621384
 C         -2.3083539036        3.4039816010        1.8987920278
 C         -3.1516989534        2.3093913764        1.9588782172
 C         -2.9002019776        1.2088537557        1.1461167993
 N         -3.7114686881        0.0720068543        1.2217231452
 S         -3.9351022299       -0.9580146351       -0.0733616929
 O         -3.9792092916       -0.2450479726       -1.3286777640
 O         -5.1399820970       -1.6865989339        0.2730223198
 C         -2.5662703071       -2.0919684277       -0.0254571476
 C         -1.9757893908       -2.4906033720       -1.2061203216
 C         -0.9581698802       -3.4289662677       -1.1633980798
 C         -0.5522186206       -3.9502032357        0.0540337156
 C         -1.1538014743       -3.5362880304        1.2328712314
 C         -2.1735589339       -2.6003880798        1.1959928875
 H         -2.6622878859       -2.2550094923        2.0921875467
 H         -0.8265301461       -3.9364906326        2.1795193119
 H          0.2421380286       -4.6800636483        0.0845168330
 H         -0.4795536805       -3.7418958368       -2.0775550476
 H         -2.3125198012       -2.0501932928       -2.1313624383
 H         -4.5358261918        0.1567188576        1.7969105000
 H         -3.9935906118        2.3005450007        2.6344280130
 H         -2.4939696047        4.2572821002        2.5336426240
 H         -0.5750841843        4.2703697768        0.9842453318
 C          0.2025707040        2.3481819816       -0.7357752818
 H          0.5736701486        3.3811443853       -0.7804692944
 C         -0.1678755113        1.9144586560       -2.1396883544
 C         -0.9002695491        2.8754591907       -3.0248385790
 C          0.5321914499        2.5369976062       -3.3082434540
 H          0.7583511205        1.9182904179       -4.1637374490
 H          1.2829761090        3.2860528441       -3.1006651308
 H         -1.6645270839        2.4888865289       -3.6817194566
 H         -1.1194501139        3.8546599657       -2.6259211617
 H         -0.4237150233        0.8663187730       -2.2190655497
 O          0.4330273767       -0.6029434333       -0.6389887944
