  62
        -98.93780387
 C         -2.0160442338       -1.4003637324        0.0797664856
 C         -2.3410956731       -0.4063483181       -0.8730838433
 C         -3.7081686520        0.1421573929       -0.8083511157
 C         -4.5647105589       -0.3050878114        0.1246080210
 C         -6.0045740240        0.0846787131        0.3460367372
 C         -6.3582835118        1.5762286630        0.2634948145
 C         -5.2534184893        2.5345832237        0.7316319098
 H         -5.6769547096        3.2405544557        1.4484933938
 H         -4.4682629468        1.9793372137        1.2480366540
 C         -4.6380335166        3.3426458845       -0.4135670731
 H         -4.1556054616        4.2304234036        0.0027681008
 H         -5.4400156393        3.6852121864       -1.0712149227
 C         -3.5888728107        2.6065786545       -1.2457579679
 H         -3.3164470891        3.2486073708       -2.0871333413
 H         -2.6836393416        2.4586991048       -0.6500301866
 C         -4.0207863197        1.2349216654       -1.7902465645
 H         -5.0714396237        1.2356818153       -2.0694513060
 H         -3.4237458397        1.0234132303       -2.6813531504
 H         -7.2494830363        1.7226081403        0.8761051129
 H         -6.6365994154        1.8293890236       -0.7586664336
 H         -6.6199410358       -0.4682404250       -0.3697332303
 H         -6.2500373801       -0.2948059570        1.3408500944
 O         -4.2120641444       -1.2634914600        1.0262751255
 C         -2.9499389680       -1.8254340667        1.0302938343
 O         -2.7805983758       -2.6894390184        1.9136052819
 H          0.2793611698        0.3289393026       -0.6421199236
 C          0.7429615847        0.0067382454        0.2784431832
 C          0.3630411757       -1.2029641943        0.8425266215
 C          0.9624625235       -1.5987985038        2.0322171227
 C          1.9139029900       -0.8000643084        2.6432427251
 C          2.2869051403        0.4069392032        2.0803025338
 C          1.6899822746        0.8120414500        0.8931659838
 N          2.0717848851        2.0335729163        0.3057578287
 S          3.7163839304        2.2511004615        0.0703275557
 O          4.3218772808        2.6991973609        1.2999258487
 O          3.8333269986        3.1522318100       -1.0544203413
 C          4.3292912801        0.6289957608       -0.3502585080
 C          5.2022060941       -0.0214414542        0.4973581013
 C          5.6183716610       -1.3034019475        0.1751413661
 C          5.1520822792       -1.9110644572       -0.9799309361
 C          4.2773967933       -1.2427117777       -1.8228936812
 C          3.8587254726        0.0389374542       -1.5067299288
 H          3.1811075575        0.5858864355       -2.1428667115
 H          3.9164161306       -1.7154637275       -2.7222074382
 H          5.4715024150       -2.9112828364       -1.2265541154
 H          6.2999486876       -1.8249022722        0.8275481532
 H          5.5367575402        0.4866320420        1.3869715977
 H          1.5580122711        2.2444073449       -0.5379891025
 H          3.0247187041        1.0437022120        2.5412647873
 H          2.3694640438       -1.1201705392        3.5677572791
 H          0.6681579572       -2.5347591144        2.4842513680
 C         -0.6576831567       -2.0810690304        0.1586492721
 H         -0.8112698243       -2.9667441801        0.7890742395
 C         -0.1430464921       -2.5393169077       -1.1934377605
 C          0.9080954937       -3.6049967567       -1.2446217406
 C         -0.4918460035       -3.9104918457       -1.6844446570
 H         -0.6872654599       -4.0460080514       -2.7376621131
 H         -1.1055173741       -4.5290502263       -1.0453975240
 H          1.2464400815       -4.0188880079       -0.3070211736
 H          1.6783059390       -3.5321340923       -1.9964104791
 H         -0.0957458734       -1.7461425261       -1.9272978812
 O         -1.5502337313        0.0206533513       -1.7574633541
