  62
        -98.93341880
 C         -1.6103129458       -0.2945391522        0.1080736360
 C         -2.7456014764       -1.0317976714        0.5261558228
 C         -4.0696252421       -0.4517326172        0.2353714153
 C         -4.1345047520        0.7588189816       -0.3462942118
 C         -5.3517557319        1.5519525804       -0.7504253827
 C         -6.5163826232        1.5927608344        0.2508671123
 C         -7.7379855162        0.7906933477       -0.2017181413
 H         -8.6240223490        1.1958470089        0.2922040031
 H         -7.8698305160        0.9355169159       -1.2760873608
 C         -7.6834594476       -0.7053404663        0.1030020105
 H         -7.8037148302       -0.8599534667        1.1774500188
 H         -8.5383815305       -1.1739744569       -0.3901496520
 C         -6.4065436866       -1.4177314300       -0.3470733564
 H         -6.0947444121       -1.0583277360       -1.3272956237
 H         -6.6368432859       -2.4797072367       -0.4559001606
 C         -5.2470362957       -1.2901933594        0.6524069069
 H         -5.6205675353       -0.9222044397        1.6122231358
 H         -4.8247000745       -2.2793752347        0.8545519271
 H         -6.1780930047        1.2508990596        1.2277342783
 H         -6.8214239965        2.6346438405        0.3617406887
 H         -4.9813523793        2.5639525695       -0.9300003509
 H         -5.7046092313        1.1754580897       -1.7140695793
 O         -3.0148861377        1.4584660453       -0.6851949975
 C         -1.7339451150        0.9653020487       -0.4780106024
 O         -0.8342928488        1.7416778700       -0.8474979987
 O         -2.6590764035       -2.1393372380        1.1211847919
 C         -0.2449493527       -0.9027962951        0.3749704450
 C          0.6836564373        0.1160425526        0.9824363110
 C          0.4474143172        0.5507327994        2.2842515512
 C          1.2674925231        1.4924756242        2.8742157450
 C          2.3536322214        2.0052874430        2.1864135299
 C          2.5956288022        1.5806721632        0.8858054626
 C          1.7633175645        0.6415601029        0.2914256098
 H          1.9426850152        0.3664015993       -0.7337324595
 N          3.6854990032        2.0821353540        0.1635983048
 S          4.4838877222        1.1294080172       -0.9454732445
 O          5.8123841831        1.7020677010       -1.0156787868
 O          3.7649352932        1.0705575567       -2.1929016276
 C          4.5650066337       -0.4964614755       -0.2119034939
 C          5.0814639877       -0.6233241647        1.0625259434
 C          5.1423924692       -1.8813679426        1.6392006275
 C          4.6925024831       -2.9874406660        0.9344869729
 C          4.1858533902       -2.8455609689       -0.3477371377
 C          4.1194603899       -1.5884707310       -0.9276555404
 H          3.7256495947       -1.4315881325       -1.9193050057
 H          3.8386312327       -3.7068688673       -0.8962784111
 H          4.7373409592       -3.9659474210        1.3858468674
 H          5.5381745517       -1.9955637175        2.6353846429
 H          5.4308887042        0.2533790841        1.5826848836
 H          4.3073238327        2.6897134450        0.6747116427
 H          2.9979410607        2.7398718754        2.6448902899
 H          1.0667970417        1.8258733592        3.8812106854
 H         -0.3991491918        0.1474802869        2.8230255591
 H         -0.4386419979       -1.6793346583        1.1334627950
 C          0.3679188934       -1.6120771640       -0.8231381873
 C         -0.4899403062       -2.3184203688       -1.8282979840
 C          0.2574998640       -1.0802678847       -2.2191167034
 H          1.1120392200       -1.1726141209       -2.8742883625
 H         -0.2952348169       -0.1652888591       -2.3663622674
 H         -0.1533965507       -3.2681834576       -2.2154478106
 H         -1.5612681844       -2.2495682554       -1.7080583639
 H          1.3044643752       -2.0963007167       -0.5624232777
