  62
        -98.94182899
 C         -2.7646583917       -0.3362893606       -0.3020398287
 C         -1.9930408219        0.4988903825       -1.1464849811
 C         -2.0419228370        1.9380373838       -0.8497396502
 C         -2.8200618269        2.3866495406        0.1502601722
 C         -2.9279202734        3.8192384372        0.5833813693
 C         -1.9271217770        4.1449877973        1.7004426565
 C         -0.4954554374        3.6932002537        1.4092897552
 H          0.1248259698        4.0237569590        2.2458028414
 H         -0.4493380040        2.6008653125        1.3988118823
 C          0.0913249530        4.2307506902        0.0969518226
 H         -0.4786409567        5.0983930511       -0.2388732107
 H          1.1137871157        4.5638157040        0.2868093160
 C          0.1619526005        3.1959870530       -1.0277665975
 H          0.8172147422        3.5880690400       -1.8107825350
 H          0.6140115861        2.2793849901       -0.6377658674
 C         -1.1782027780        2.8397815083       -1.6854643539
 H         -1.7133766953        3.7536346757       -1.9514305016
 H         -0.9655317040        2.2855209277       -2.6041949125
 H         -2.2587225109        3.6528919624        2.6177944279
 H         -1.9404485674        5.2235074729        1.8695480256
 H         -2.7537484992        4.4659588371       -0.2743254666
 H         -3.9398327424        3.9887099474        0.9557661566
 O         -3.5837302715        1.5627473306        0.9123021723
 C         -3.5460980454        0.1923697067        0.7308787566
 O         -4.2582719852       -0.4463664208        1.5320583033
 H         -0.1879362524       -1.4949331098       -1.1504096618
 C         -0.2525338701       -2.0418459177       -0.2216038481
 C         -1.5003276274       -2.3522909497        0.2997324646
 C         -1.5595930632       -3.0362766942        1.5081686375
 C         -0.3999704100       -3.3805250093        2.1823215337
 C          0.8408034356       -3.0316811269        1.6778423973
 C          0.9062312738       -2.3534306859        0.4691733394
 N          2.1660358672       -1.9154580970       -0.0237150155
 S          2.6738333952       -0.5516842054        0.8517871723
 O          3.0613485090       -0.9932785177        2.1680442699
 O          1.6614057129        0.4806769317        0.8023799445
 C          4.1132523706       -0.0562986721       -0.0750998093
 C          5.3260642909       -0.6573756821        0.2014637130
 C          6.4354333175       -0.3010198028       -0.5485502789
 C          6.3132281628        0.6424955991       -1.5578311348
 C          5.0887702192        1.2368024646       -1.8234939887
 C          3.9748740846        0.8839146301       -1.0779041189
 H          3.0050762361        1.3256348607       -1.2467873172
 H          4.9956135275        1.9712334898       -2.6073101364
 H          7.1777501680        0.9186190099       -2.1406144823
 H          7.3896115424       -0.7593988781       -0.3447322106
 H          5.3727864829       -1.3791795868        0.9997777246
 H          2.0721304350       -1.6253879356       -0.9910264594
 H          1.7495127761       -3.2476827150        2.2155681131
 H         -0.4642442529       -3.9074303793        3.1225019901
 H         -2.5248944942       -3.2697369929        1.9343086851
 C         -2.7508984891       -1.8579415321       -0.3875728950
 H         -3.6156621621       -2.1989017667        0.1968424167
 C         -2.8822534378       -2.3936437884       -1.7985358063
 C         -3.3362009673       -3.8078510346       -1.9946217702
 C         -4.2465966477       -2.6718914296       -2.3503958342
 H         -4.4315238787       -2.4630036482       -3.3932948532
 H         -5.0941483337       -2.4763208753       -1.7094715860
 H         -2.8954234178       -4.3834923302       -2.7938365928
 H         -3.5678472862       -4.3848737691       -1.1120988421
 H         -2.1428509572       -2.0006768669       -2.4829354354
 O         -1.2898350202        0.0916899395       -2.1110967014
