  62
        -98.94617333
 C         -1.2410236442       -1.1305163615        0.5258363207
 C         -1.7232719539       -0.5537848392       -0.6748501475
 C         -2.5236587400        0.6707285407       -0.5155817040
 C         -2.6544945318        1.2221675720        0.7035725631
 C         -3.4841584072        2.4336613795        1.0139709743
 C         -4.9137968784        2.0375748695        1.4105570415
 C         -5.5701556128        1.0424866170        0.4531854303
 H         -5.0343594146        0.0918178798        0.5038573066
 H         -6.5823758053        0.8595235490        0.8205173429
 C         -5.6340727700        1.5110328207       -1.0073322481
 H         -6.6300846234        1.2954356551       -1.3998329671
 H         -5.4950539972        2.5916968328       -1.0557276032
 C         -4.6303786031        0.8280427080       -1.9384819149
 H         -4.9073302062        1.0662090269       -2.9688237574
 H         -4.7027623854       -0.2562417791       -1.8228777474
 C         -3.1645468496        1.2395397831       -1.7500260974
 H         -2.5939962110        0.8411749416       -2.5937534567
 H         -3.0922351280        2.3287176995       -1.7626974171
 H         -5.5198346361        2.9436138647        1.4682602806
 H         -4.8846366718        1.5854977310        2.4048008276
 H         -3.5065374241        3.0881662619        0.1448781487
 H         -3.0234272640        2.9662947174        1.8478925840
 O         -2.0694957222        0.7051351732        1.8150019357
 C         -1.3734168199       -0.4889015566        1.7582541177
 O         -0.9150003412       -0.8673476434        2.8569506679
 O         -1.5168022844       -1.0321192016       -1.8183281960
 C         -0.4749532613       -2.4457174978        0.5151965977
 C          0.9010107386       -2.1795219866       -0.0436929068
 C          1.3141766443       -2.5670053250       -1.3106166260
 C          2.5737937216       -2.2203798716       -1.7712608748
 C          3.4430291042       -1.4879613583       -0.9833524311
 C          3.0375271370       -1.0999251385        0.2873243896
 C          1.7778243583       -1.4450920541        0.7466902945
 H          1.4557467514       -1.1310824275        1.7317535329
 N          3.9071042137       -0.3255282404        1.0895989290
 S          4.2779830905        1.1771649135        0.4435104797
 O          5.2627297964        1.0120782921       -0.5948279099
 O          4.6684629529        2.0015164191        1.5647144396
 C          2.7401922304        1.7469531043       -0.2577140068
 C          2.5346552653        1.6606089812       -1.6192664650
 C          1.3055143830        2.0381329374       -2.1350101132
 C          0.3086866992        2.4884185795       -1.2846302831
 C          0.5296339609        2.5669693576        0.0815683848
 C          1.7550224481        2.1880217209        0.6031689805
 H          1.9612355087        2.2390151713        1.6609282411
 H         -0.2511291842        2.9114082685        0.7412444982
 H         -0.6484746840        2.7768940252       -1.6874528611
 H          1.1244231398        1.9734376349       -3.1955735473
 H          3.3368561955        1.3064960532       -2.2455037319
 H          3.5598618567       -0.2055317423        2.0313352256
 H          4.4214437824       -1.1988903208       -1.3316287571
 H          2.8813190539       -2.5233189456       -2.7604327740
 H          0.6440052277       -3.1240946815       -1.9436093406
 H         -0.3553501860       -2.7305230986        1.5698766100
 C         -1.2342380186       -3.5418454881       -0.1992913610
 C         -0.8477714045       -4.9707009658        0.0322604214
 C         -2.1328571637       -4.4414754006        0.5926979863
 H         -3.0621986005       -4.7636632227        0.1473609543
 H         -2.1959505348       -4.2753360604        1.6586223383
 H         -0.8945958589       -5.6597672139       -0.7969618203
 H         -0.0368016590       -5.1631504329        0.7185571891
 H         -1.5664199347       -3.2584426555       -1.1896952805
