  62
        -98.94338838
 C          1.9307808343        0.7695508824        0.5507377656
 C          2.2275569834        0.1813473193       -0.7018452714
 C          2.6210074584       -1.2319298458       -0.6627843526
 C          2.6204669506       -1.8945937525        0.5079647358
 C          2.9639310466       -3.3467714160        0.7032802167
 C          4.4687482961       -3.6226655772        0.8294974531
 C          5.2656747182       -3.4926171585       -0.4691686864
 H          6.2526186649       -3.9204063526       -0.2825348376
 H          4.7911590703       -4.0929357673       -1.2458283194
 C          5.4385071154       -2.0499707047       -0.9642803609
 H          5.2194675686       -1.3566351876       -0.1490129054
 H          6.4790024566       -1.8864396773       -1.2534353613
 C          4.5708003104       -1.6850023263       -2.1687824563
 H          4.7450361360       -0.6335954660       -2.4105074170
 H          4.8702880310       -2.2840606761       -3.0314646208
 C          3.0648484360       -1.8740482913       -1.9425647041
 H          2.5288323039       -1.3848338084       -2.7595869023
 H          2.8126072123       -2.9342864348       -1.9440427968
 H          4.5814735870       -4.6442552449        1.1997094968
 H          4.8842900591       -2.9485020051        1.5819891672
 H          2.4756807721       -3.6577402967        1.6295692569
 H          2.5509156005       -3.9327972757       -0.1183095109
 O          2.2788374505       -1.3043800873        1.6856852182
 C          1.9408612254        0.0381047721        1.7367629270
 O          1.6745803177        0.4583903419        2.8833729507
 H         -0.5960308600        0.6196807742        0.4001249939
 C         -0.7228566714        1.5175876134       -0.1888289398
 C          0.2870498298        2.4709833766       -0.2123003031
 C          0.0975691611        3.6199077760       -0.9699183666
 C         -1.0715609929        3.7985429075       -1.6891040490
 C         -2.0740123942        2.8474876544       -1.6622059817
 C         -1.8927559121        1.6917985892       -0.9090210278
 N         -2.8748823825        0.6877423278       -0.8937955302
 S         -3.0060232366       -0.3229423672        0.4477716890
 O         -3.0003811914        0.4586467190        1.6648091840
 O         -2.0161089957       -1.3671775732        0.3466192547
 C         -4.6317922813       -1.0015775290        0.1694210447
 C         -5.7219631732       -0.4071384905        0.7769487840
 C         -6.9874101420       -0.9165856505        0.5317398142
 C         -7.1411262295       -2.0045421644       -0.3144039246
 C         -6.0377328922       -2.5916840409       -0.9157433346
 C         -4.7694714001       -2.0875550205       -0.6741849266
 H         -3.8817868284       -2.5149254452       -1.1109047580
 H         -6.1602620492       -3.4395173586       -1.5702247746
 H         -8.1266706120       -2.3994034599       -0.5039394770
 H         -7.8462032853       -0.4642988301        1.0008335878
 H         -5.5520184493        0.4298552400        1.4349586813
 H         -3.7759128320        1.0053699804       -1.2235242767
 H         -2.9844617629        2.9883075437       -2.2242887418
 H         -1.2052756774        4.6948630542       -2.2755400744
 H          0.8664243019        4.3745223161       -0.9985837648
 C          1.5240759626        2.2287445358        0.6200302365
 H          1.2618722839        2.4217499030        1.6719931405
 C          2.6909871518        3.1160761284        0.2352533302
 C          2.8582010937        4.4667037327        0.8620896549
 C          3.7807176732        3.3472723736        1.2371737537
 H          4.8027336413        3.3790872477        0.8907402712
 H          3.6626200792        2.8877631294        2.2082735347
 H          3.2516704825        5.2704223977        0.2581871559
 H          2.1204839707        4.7764363970        1.5870151487
 H          2.9817707056        2.9894801550       -0.8012564513
 O          2.1688561279        0.8020066321       -1.7955672322
