  62
        -98.94436784
 C          1.8434595501        1.0564764638       -0.1897502864
 C          2.3633746401       -0.0822488519       -0.8506641437
 C          3.8280019055       -0.2130540779       -0.8393012020
 C          4.5715665362        0.7372338680       -0.2437412162
 C          6.0662957508        0.7006414066       -0.1136083331
 C          6.4933446877        0.0196128008        1.1943241761
 C          5.8068733527       -1.3231693801        1.4447024130
 H          6.2075244877       -1.7241323969        2.3782473167
 H          4.7385650595       -1.1551663718        1.5989738497
 C          5.9981728279       -2.3530469524        0.3226408163
 H          6.8429903197       -2.0656806370       -0.3043822638
 H          6.2412130557       -3.3186636064        0.7710659681
 C          4.7652329399       -2.5686899732       -0.5571869741
 H          3.8934818645       -2.7650025921        0.0724608473
 H          4.9345655335       -3.4599555952       -1.1674590020
 C          4.4183479604       -1.4198371829       -1.5125929135
 H          5.3005513700       -1.1455194880       -2.0947547713
 H          3.6501808967       -1.7824858469       -2.2021347381
 H          6.2542370580        0.6866193801        2.0257847756
 H          7.5754360557       -0.1215847286        1.1725871746
 H          6.4369835839        1.7270293550       -0.1161921654
 H          6.4869973943        0.1708415521       -0.9659929806
 O          4.0354321310        1.8292506568        0.3588763946
 C          2.6630553843        2.0107555446        0.4124238611
 O          2.3018749791        3.0410703300        1.0160062497
 O          1.6455348276       -0.9460801135       -1.4191701430
 C          0.3419774391        1.2781605036       -0.1357411769
 C         -0.3337315751        0.0766788003        0.4774707114
 C          0.1605558409       -0.4250863355        1.6798155169
 C         -0.4049429094       -1.5382574602        2.2684324765
 C         -1.4875606549       -2.1681086053        1.6790228182
 C         -1.9972074061       -1.6685539354        0.4876504574
 C         -1.4277217767       -0.5461035682       -0.1014325308
 H         -1.8345317285       -0.1922900575       -1.0336505489
 N         -3.0904355262       -2.2890913287       -0.1330189134
 S         -4.2596064515       -1.3725937936       -0.8899535955
 O         -5.4341364355       -2.2187905101       -0.8927353326
 O         -3.8046746900       -0.9300493197       -2.1834611784
 C         -4.5264470103        0.0319295882        0.1789127414
 C         -4.4752596175        1.3060807971       -0.3462944249
 C         -4.6874467494        2.3885411065        0.4928619493
 C         -4.9433932344        2.1782054568        1.8385157900
 C         -4.9967476199        0.8908820339        2.3512264515
 C         -4.7892135679       -0.1943327980        1.5158832327
 H         -4.8346339905       -1.2055445135        1.8856797082
 H         -5.1984579108        0.7306737913        3.3980983202
 H         -5.1035905393        3.0221400849        2.4908550601
 H         -4.6500391314        3.3896744851        0.0935551880
 H         -4.2670873125        1.4253930161       -1.3969714520
 H         -3.4850530366       -3.0688631525        0.3711254623
 H         -1.9252009017       -3.0454294011        2.1304267010
 H         -0.0021717964       -1.9204478833        3.1943472898
 H          1.0081778209        0.0663050318        2.1385736377
 H          0.1846518308        2.1388721685        0.5307462145
 C         -0.1739888203        1.6311007851       -1.5148787448
 C         -1.3740338713        2.5135261339       -1.6719301888
 C         -0.0105004228        3.0364521989       -2.0078275459
 H          0.2437148259        3.1933411767       -3.0454162337
 H          0.4479002968        3.7455567086       -1.3337361817
 H         -2.0566865873        2.3075177790       -2.4829019635
 H         -1.8479213906        2.8750551847       -0.7720384061
 H         -0.0308001137        0.8306164883       -2.2323357267
