  62
        -98.95211910
 C          2.3592101043        0.3365468210        0.0403558266
 C          1.5162707784       -0.2319603240       -0.9424455995
 C          1.5174614114       -1.6979704080       -1.0237942816
 C          2.2962503324       -2.4017595715       -0.1823774204
 C          2.4086530644       -3.8986907311       -0.1640826722
 C          1.4192617966       -4.5386287132        0.8178337356
 C         -0.0196468233       -4.0464707154        0.6615342585
 H         -0.6342520396       -4.6130496601        1.3655122895
 H         -0.0823704957       -2.9985753864        0.9643862936
 C         -0.5960175284       -4.1959039828       -0.7532705531
 H         -0.0124013290       -4.9230373942       -1.3200445978
 H         -1.6132377614       -4.5852639303       -0.6727236226
 C         -0.6832624859       -2.8829699116       -1.5338864732
 H         -1.3438755631       -3.0369475117       -2.3916441311
 H         -1.1402409840       -2.1223831102       -0.8956840860
 C          0.6459713942       -2.3346019009       -2.0695033787
 H          0.4154114207       -1.5425615429       -2.7879881483
 H          1.1865799924       -3.1265293341       -2.5930156883
 H          1.4518366138       -5.6215186242        0.6795474382
 H          1.7462846419       -4.3162489681        1.8363550372
 H          3.4244693794       -4.1587331395        0.1402076967
 H          2.2332632552       -4.2788099219       -1.1689231275
 O          3.0756221732       -1.8217721532        0.7669971577
 C          3.1125748155       -0.4448519406        0.9139495003
 O          3.8498726007       -0.0432501283        1.8389461953
 O          0.8091093655        0.4554464606       -1.7263581222
 C          2.4370447671        1.8462077034        0.1830047182
 C          1.0527481440        2.4303789252        0.3246911390
 C          0.6479254859        3.5989585224       -0.3089954617
 C         -0.6438728660        4.0711832500       -0.1523902703
 C         -1.5627214311        3.3798723124        0.6158001175
 C         -1.1636455904        2.2159404978        1.2624076448
 C          0.1420176808        1.7705196603        1.1396274705
 H          0.4390349549        0.8668984367        1.6520553295
 N         -2.0647301302        1.4600441572        2.0416829072
 S         -2.3879067233       -0.1038040224        1.5296297612
 O         -3.3578826495       -0.6141541177        2.4751447787
 O         -1.1601671012       -0.8452676022        1.4132011261
 C         -3.1732758009        0.1009606568       -0.0597095176
 C         -2.4089275459        0.4186435976       -1.1647553464
 C         -3.0506167519        0.6345657604       -2.3754252603
 C         -4.4301919096        0.5340421527       -2.4611901304
 C         -5.1824412206        0.2157799377       -1.3402083236
 C         -4.5502322536        0.0015196514       -0.1267303294
 H         -5.0910125808       -0.2512459993        0.7710730299
 H         -6.2554775247        0.1357200058       -1.4075719080
 H         -4.9206509529        0.7038082431       -3.4067862696
 H         -2.4573157547        0.8811115991       -3.2412749055
 H         -1.3345219900        0.4880279245       -1.0866088977
 H         -2.9396009979        1.9335833296        2.2228614679
 H         -2.5784780881        3.7322026290        0.7152252779
 H         -0.9442581037        4.9796305660       -0.6517391368
 H          1.3431392862        4.1374607821       -0.9320605363
 H          2.9913996518        2.0378263355        1.1139000138
 C          3.2164503149        2.4309586364       -0.9785163915
 C          4.0457344004        3.6653142253       -0.7932250820
 C          4.7113866158        2.3339007037       -0.9646067495
 H          5.2240205918        2.1258281908       -1.8917442233
 H          5.1668729852        1.8703132067       -0.1013040124
 H          4.1066476685        4.3733703935       -1.6059439462
 H          4.0621535201        4.1149207682        0.1881060176
 H          2.7152197508        2.2859290705       -1.9288453076
