  62
        -98.93913907
 C         -1.5044519477       -0.8675042403       -0.0505846127
 C         -2.7727539822       -1.4889802491       -0.0432092078
 C         -3.8970488877       -0.6737392551        0.4497785159
 C         -3.6574855447        0.5801979737        0.8717401845
 C         -4.6624920608        1.5879579895        1.3573538011
 C         -5.1283185180        2.4898368320        0.2017663932
 C         -6.3104388005        1.9484452768       -0.6011756076
 H         -7.2146531722        2.0049831492        0.0086653471
 H         -6.4522854806        2.6108877858       -1.4582541791
 C         -6.1539614879        0.5131831252       -1.1106818207
 H         -5.1450271203        0.3683487612       -1.5012329510
 H         -6.8453993354        0.3769087852       -1.9446118008
 C         -6.4561310447       -0.5444545113       -0.0386704339
 H         -7.1714288170       -1.2675372819       -0.4362533292
 H         -6.9435560373       -0.0629388191        0.8090038867
 C         -5.2421047676       -1.3477277003        0.4519998208
 H         -5.4455238187       -1.7190303682        1.4621926773
 H         -5.1097771734       -2.2301366718       -0.1821396800
 H         -5.4139084574        3.4619995090        0.6085778901
 H         -4.2752267552        2.6505603304       -0.4621286079
 H         -5.5038173694        1.0950034247        1.8352464416
 H         -4.1502573751        2.2067370983        2.0969445193
 O         -2.4146005088        1.1356249339        0.8607575651
 C         -1.3093289444        0.4376438792        0.4022772658
 O         -0.2404251007        1.0711117219        0.4506406442
 O         -2.9607780482       -2.6744489916       -0.4319765858
 C         -0.3019110354       -1.6377429386       -0.5630574052
 C          0.7775167139       -1.6700802322        0.4894209218
 C          0.4442230087       -2.0414630723        1.7899988731
 C          1.3990785196       -2.0548541657        2.7872348413
 C          2.7053311241       -1.6869994302        2.5140162438
 C          3.0516952563       -1.3303536669        1.2170135760
 C          2.0937274140       -1.3391580358        0.2116035697
 H          2.3961649408       -1.0842237791       -0.7891477796
 N          4.3685336332       -0.9710055353        0.9056922130
 S          4.7150536595        0.0769441392       -0.3446114222
 O          4.5958070756       -0.6058707126       -1.6090546134
 O          6.0377708470        0.5731670839       -0.0264543495
 C          3.5354306845        1.4107872377       -0.2526395252
 C          2.8086369096        1.7503851465       -1.3743549718
 C          1.9142249219        2.8047780211       -1.3007945631
 C          1.7605621716        3.4963629621       -0.1109884903
 C          2.4999532542        3.1450897866        1.0066018019
 C          3.3981922721        2.0938573189        0.9382539122
 H          3.9892692776        1.8014869324        1.7912449564
 H          2.3720016828        3.6829622648        1.9323219730
 H          1.0540649769        4.3091456726       -0.0528790430
 H          1.3323919855        3.0763724253       -2.1676696382
 H          2.9524623888        1.1807211308       -2.2793592088
 H          4.9832033312       -0.8448834408        1.6953356290
 H          3.4497467238       -1.6812974396        3.2952735187
 H          1.1237728397       -2.3429056467        3.7907301084
 H         -0.5797701641       -2.3124559779        2.0090536765
 H         -0.6559799957       -2.6652996774       -0.7334957026
 C          0.1638047533       -1.0542140037       -1.8806633449
 C          0.8749475492       -1.9135721568       -2.8814006467
 C         -0.5274407619       -1.4568676406       -3.1472167212
 H         -0.6925464508       -0.7073148771       -3.9065941923
 H         -1.3247322142       -2.1815184590       -3.0683408523
 H          1.6814250191       -1.4810807690       -3.4549989586
 H          1.0309081915       -2.9511902138       -2.6270859634
 H          0.4718058930       -0.0183048879       -1.7855405538
