  62
        -98.93484742
 C          2.3167061630        0.8255882130       -0.0702662327
 C          3.4532284404        0.7858481863        0.7679920973
 C          4.5316062933       -0.1417623796        0.3788373439
 C          4.3841730985       -0.8801791488       -0.7360941245
 C          5.3338442167       -1.8896895788       -1.3297506378
 C          6.8155296728       -1.4862007216       -1.3871329434
 C          7.6977391842       -2.2747474581       -0.4178744608
 H          7.3654836263       -3.3148944456       -0.4131132528
 H          8.7244293873       -2.2625590787       -0.7905848083
 C          7.7208960815       -1.7452891986        1.0149789459
 H          8.2823453179       -0.8089102309        1.0448102649
 H          8.2651431340       -2.4693449081        1.6259583911
 C          6.3484074701       -1.5041112047        1.6471150351
 H          5.6599893773       -2.3066753739        1.3853428173
 H          6.4721708645       -1.5322122154        2.7318791375
 C          5.7334682927       -0.1441827974        1.2841417898
 H          5.3924245362        0.3586656606        2.1946392682
 H          6.4989983118        0.5073891392        0.8524767855
 H          6.9158128017       -0.4170912616       -1.2060601373
 H          7.1740028663       -1.6767816257       -2.3999952528
 H          5.2266557842       -2.8301374020       -0.7838440718
 H          4.9587179900       -2.0716399937       -2.3393079272
 O          3.2625619331       -0.8155479716       -1.5098398682
 C          2.2074526003        0.0273416267       -1.2075468739
 O          1.2593471538       -0.0236065788       -2.0131880816
 H         -1.2800363125        2.0497155134       -0.9568785412
 C         -1.2604346928        1.2577481707       -0.2246299656
 C         -0.0956036901        0.9901666092        0.4752327113
 C         -0.1086436485       -0.0355132388        1.4177114738
 C         -1.2511754368       -0.7789494162        1.6381488804
 C         -2.4082246567       -0.5196384199        0.9232823630
 C         -2.4103313129        0.5058654433       -0.0107418412
 N         -3.5728430002        0.7680280626       -0.7508074382
 S         -5.0570309493        0.8176200906        0.0226068904
 O         -5.8997840099        1.6211606160       -0.8357921827
 O         -4.9286188255        1.2620540336        1.3910566601
 C         -5.6255730606       -0.8690662421       -0.0219283501
 C         -6.0559677691       -1.4802573714        1.1393534484
 C         -6.5091201305       -2.7890321794        1.0800151015
 C         -6.5247092767       -3.4591996950       -0.1335061020
 C         -6.0912633458       -2.8302959687       -1.2912783237
 C         -5.6382501179       -1.5218479936       -1.2389165112
 H         -5.2945394229       -0.9991684930       -2.1159539398
 H         -6.1038200226       -3.3550214173       -2.2330753495
 H         -6.8766716919       -4.4778150768       -0.1776796714
 H         -6.8465804116       -3.2796540624        1.9789212132
 H         -6.0202365010       -0.9222305014        2.0615204621
 H         -3.4779048226        1.5138643333       -1.4239892991
 H         -3.3017877971       -1.0993364811        1.0871933346
 H         -1.2430384302       -1.5720142252        2.3705608924
 H          0.7957408404       -0.2416829964        1.9739701133
 C          1.1797221419        1.7701493960        0.2744781441
 H          1.4569916306        2.2213239460        1.2385773179
 C          1.0767260509        2.8683215452       -0.7626468525
 C          0.4701501138        4.1904063470       -0.4009255933
 C          1.9478171432        4.0792769552       -0.6240955917
 H          2.3697762300        4.5157419518       -1.5169433212
 H          2.6015977542        4.1241482546        0.2345300849
 H         -0.1215294398        4.7083872223       -1.1409736394
 H          0.1172178247        4.3174209228        0.6114733781
 H          0.9131134392        2.4843598985       -1.7636329834
 O          3.5636342892        1.4938268078        1.8060606673
