  62
        -98.94672017
 C         -1.9914756138       -1.4565172239       -0.0937641682
 C         -1.7156623882       -0.2188472059       -0.7207780409
 C         -2.8671226095        0.6745928801       -0.9088178974
 C         -4.0892658929        0.2643853915       -0.5234165369
 C         -5.3371333898        1.0938272740       -0.6077785915
 C         -5.5645781149        1.8891364397        0.6857557194
 C         -4.3302015774        2.6499243478        1.1702923200
 H         -4.6185434990        3.1945199291        2.0719988911
 H         -3.5602975503        1.9316333436        1.4613864178
 C         -3.7449571273        3.6317288846        0.1455959773
 H         -4.4866921210        3.8503344097       -0.6234367519
 H         -3.5171973564        4.5715651961        0.6527630419
 C         -2.4506829592        3.1580969077       -0.5186103386
 H         -2.0111811425        4.0081914772       -1.0475932980
 H         -1.7411883481        2.8420159834        0.2508023860
 C         -2.6033137504        2.0164350107       -1.5318955439
 H         -1.6555155371        1.9148383997       -2.0691415938
 H         -3.3815424464        2.2670776310       -2.2554914832
 H         -6.3846933026        2.5900599361        0.5197516038
 H         -5.8672070435        1.1926523790        1.4711955231
 H         -5.2594222984        1.7721679163       -1.4552307546
 H         -6.1848484659        0.4251327178       -0.7663438525
 O         -4.3207462809       -0.9495729036        0.0395884930
 C         -3.2801621143       -1.8303067420        0.2867671459
 O         -3.6236981700       -2.8931270251        0.8424399538
 O         -0.5673354357        0.1276958558       -1.1004432361
 C         -0.8574705927       -2.4281457831        0.1816678470
 C          0.1957895088       -1.7461944715        1.0208909859
 C         -0.1899318253       -1.1599977305        2.2248983857
 C          0.7312042632       -0.5143810164        3.0256736080
 C          2.0577974547       -0.4307948206        2.6381066403
 C          2.4548077525       -1.0168254459        1.4432708895
 C          1.5284935046       -1.6806250036        0.6480542041
 H          1.8673402625       -2.1199782739       -0.2745734242
 N          3.8011939817       -0.9708949437        1.0345902816
 S          4.2006494995       -0.3216450288       -0.4575510077
 O          3.5617131868       -1.0704984304       -1.5071907397
 O          5.6478433644       -0.3098400503       -0.4712781968
 C          3.5987965656        1.3568362476       -0.3989182352
 C          4.4946081261        2.3626854946       -0.0886070065
 C          4.0346984555        3.6648370583        0.0166613260
 C          2.6890064306        3.9374981574       -0.1798172554
 C          1.8041035407        2.9156410900       -0.4851299342
 C          2.2562845723        1.6092860023       -0.5966030208
 H          1.5755441747        0.8071723563       -0.8341600099
 H          0.7555448041        3.1160108120       -0.6388883360
 H          2.3274529485        4.9503483260       -0.0958183613
 H          4.7232600771        4.4603323904        0.2524085293
 H          5.5319679270        2.1041363494        0.0510666701
 H          4.4226414871       -0.5891329439        1.7343301046
 H          2.7793644944        0.0797308640        3.2579666951
 H          0.4149670432       -0.0656131865        3.9552382536
 H         -1.2288806771       -1.2190878217        2.5214473117
 H         -1.2926781119       -3.2459993040        0.7744380412
 C         -0.3259277602       -2.9997402778       -1.1156219716
 C          0.3242380202       -4.3493231156       -1.1302334099
 C         -1.0319578585       -4.1635641778       -1.7403496569
 H         -1.1239592882       -4.1943504589       -2.8157407217
 H         -1.8890945598       -4.5622719369       -1.2169274402
 H          1.1675950543       -4.5058664680       -1.7861379919
 H          0.3897826022       -4.8828684399       -0.1939016713
 H          0.0675821344       -2.2404316241       -1.7823785371
