  62
        -98.93883681
 C         -2.5819050811        0.1198036875        0.4477974431
 C         -2.2555840408        0.7841572465       -0.7574800915
 C         -1.7599400927        2.1658996988       -0.6328638409
 C         -1.6403711014        2.7155089988        0.5876732883
 C         -1.2048860539        4.1095519093        0.9707935004
 C         -0.0720216414        4.7632545313        0.1736689485
 C          1.0686382690        3.8177094535       -0.2289940895
 H          2.0196577682        4.2590952706        0.0761561620
 H          0.9736521936        2.8607448763        0.2885307953
 C          1.1268831493        3.5602369070       -1.7357910087
 H          0.9668085853        4.5010587025       -2.2680131659
 H          2.1274782447        3.2028657979       -1.9897200474
 C          0.1314391406        2.5179589649       -2.2389449197
 H          0.3772328911        1.5450380698       -1.8031084176
 H          0.2456597810        2.4292931116       -3.3222967378
 C         -1.3435861968        2.8183258911       -1.9199928525
 H         -1.5365807860        3.8884895209       -1.9125584949
 H         -1.9597903446        2.3591996390       -2.6979161933
 H         -0.4790840235        5.2353194035       -0.7194105983
 H          0.3238240042        5.5650512190        0.8002016081
 H         -2.0869748210        4.7570628851        0.9321751796
 H         -0.9111478686        4.0329728792        2.0211054821
 O         -1.9796101270        2.0392729650        1.7250652153
 C         -2.4202309391        0.7290912716        1.6883180869
 O         -2.6422761321        0.2267903452        2.8119541655
 H         -0.3782810411       -0.9883753174        0.6749048054
 C         -0.5885064467       -1.7990338005       -0.0072051057
 C         -1.9089946867       -2.1475762887       -0.2604684760
 C         -2.1590728861       -3.2170490076       -1.1095538845
 C         -1.1074364700       -3.8964376186       -1.7023638167
 C          0.2029882058       -3.5166150992       -1.4811181618
 C          0.4632172085       -2.4438782203       -0.6329160514
 N          1.7766481988       -1.9820717305       -0.4471947177
 S          2.1547829968       -0.8325202150        0.7165686920
 O          1.9366118994       -1.3657803244        2.0458296071
 O          1.4891795941        0.4041070190        0.4002392403
 C          3.9023078190       -0.6672765106        0.4097206356
 C          4.3212735270        0.2329776603       -0.5510757761
 C          5.6765424266        0.3492659886       -0.8156455068
 C          6.5852969400       -0.4341816920       -0.1197800613
 C          6.1504594665       -1.3323082764        0.8433032123
 C          4.7961319193       -1.4526834319        1.1127154745
 H          4.4133270335       -2.1267393026        1.8621704430
 H          6.8596806993       -1.9369273350        1.3852193406
 H          7.6396323776       -0.3416623788       -0.3272402502
 H          6.0180393721        1.0494622923       -1.5607909724
 H          3.5762763611        0.8247100784       -1.0578355798
 H          2.4874648744       -2.6918240816       -0.5466082533
 H          1.0178220110       -4.0319244753       -1.9653208048
 H         -1.3140779148       -4.7282238827       -2.3587282506
 H         -3.1750945406       -3.5145286164       -1.3121814779
 C         -2.9945722055       -1.3403050716        0.4135245452
 H         -3.0630531877       -1.6635052097        1.4638428773
 C         -4.3518263809       -1.5008355026       -0.2396287044
 C         -5.2785292201       -2.5953542826        0.1947470923
 C         -5.5782319180       -1.1723438133        0.5556799124
 H         -6.3964349301       -0.6724144906        0.0596968129
 H         -5.4319457133       -0.8598185000        1.5798266635
 H         -5.8969028009       -3.0730833643       -0.5501581800
 H         -4.9412154493       -3.2546167711        0.9804748573
 H         -4.3415982922       -1.2190909524       -1.2861261547
 O         -2.3791533112        0.2516885506       -1.8916929252
