  62
        -98.94240892
 C         -1.8257369753        1.1441283512        0.6601615375
 C         -1.8311878617       -0.2626947108        0.4994467644
 C         -3.1529058677       -0.9044419385        0.5541250972
 C         -4.2464540598       -0.1484784574        0.7613520270
 C         -5.6550798503       -0.6660714370        0.7793055697
 C         -6.2862881287       -0.6051494814       -0.6188397815
 C         -5.4102114263       -1.2025909368       -1.7201668397
 H         -5.9705805218       -1.1311071091       -2.6549896435
 H         -4.5138113437       -0.5888586738       -1.8357908532
 C         -4.9966195524       -2.6616017586       -1.4821695205
 H         -5.6525311325       -3.1156948019       -0.7384676461
 H         -5.1276600182       -3.2182434324       -2.4125436414
 C         -3.5396008335       -2.8456716164       -1.0537982546
 H         -2.8839081388       -2.3109267535       -1.7457713797
 H         -3.2963164090       -3.9089656681       -1.1271690613
 C         -3.2031771694       -2.3954856292        0.3733402514
 H         -3.9050008530       -2.8470060544        1.0772655761
 H         -2.1982686415       -2.7580857067        0.6073282217
 H         -7.2435866239       -1.1287869672       -0.5885492062
 H         -6.4797171378        0.4414220442       -0.8657565832
 H         -5.6561918227       -1.6907851335        1.1455695236
 H         -6.2411655808       -0.0459074285        1.4596217062
 O         -4.1973893404        1.1983435747        0.9291910766
 C         -2.9919404439        1.8789064926        0.8693364271
 O         -3.0893730037        3.1150343762        1.0113593867
 H          2.0668108413        1.0306888407        0.1362040900
 C          1.4851777169        1.1338149304       -0.7636175959
 C          0.1809398659        1.5956764720       -0.7053539876
 C         -0.5257553088        1.7568004014       -1.8949348955
 C          0.0553690620        1.4422810722       -3.1076334202
 C          1.3475576804        0.9488563303       -3.1605689967
 C          2.0632185712        0.7903830742       -1.9795544754
 N          3.3491278274        0.2498086680       -2.0068650843
 S          4.4284001849        0.1731312575       -0.7539075963
 O          4.4598814519        1.4096991977       -0.0079073711
 O          5.6753693531       -0.2105090625       -1.3806172609
 C          3.9126198903       -1.1517244260        0.3294295413
 C          4.8376085256       -1.5304535528        1.2853004209
 C          4.5194967274       -2.5434521453        2.1740979867
 C          3.2795535277       -3.1604275441        2.0974978592
 C          2.3635837104       -2.7707302278        1.1344237121
 C          2.6777602308       -1.7602065536        0.2369477114
 H          1.9526464729       -1.4480919032       -0.4964286122
 H          1.3911122823       -3.2328657596        1.0746134727
 H          3.0259808849       -3.9460803547        2.7918849600
 H          5.2341133387       -2.8458481520        2.9228273560
 H          5.7890584543       -1.0233637469        1.3099362010
 H          3.7303325361       -0.0079232681       -2.9017330089
 H          1.7953930443        0.6818075639       -4.1052673448
 H         -0.5046881714        1.5716233847       -4.0217515134
 H         -1.5424655516        2.1246048640       -1.8520056905
 C         -0.5107092398        1.9010955222        0.6004251155
 H         -0.7674808081        2.9701768691        0.6174324527
 C          0.3286789314        1.5790792147        1.8191473148
 C          1.3532262742        2.5559304447        2.3093236110
 C          0.0932308330        2.3355010395        3.0902690347
 H          0.1526079184        1.8014478619        4.0266452020
 H         -0.6615604474        3.1084949644        3.0753257363
 H          2.2836301751        2.1753494305        2.7038590994
 H          1.4598088469        3.4828202408        1.7659476613
 H          0.5523311209        0.5212855830        1.9039123497
 O         -0.7926030834       -0.9478874359        0.3177673185
