  62
        -98.93936537
 C          2.5281459698        0.7980696391        0.7713943407
 C          3.1903398699        0.3492139791       -0.3973244492
 C          3.7789763195       -0.9963752111       -0.3213784293
 C          3.6481524490       -1.7134818112        0.8092776305
 C          4.1344873485       -3.1210499614        0.9943989104
 C          3.0477244783       -4.1367323710        0.6137852400
 C          2.3967422587       -3.8680638006       -0.7433289102
 H          1.8397798190       -2.9291897304       -0.6946153901
 H          1.6691868985       -4.6635866203       -0.9181092105
 C          3.3818476990       -3.8098645707       -1.9192024199
 H          2.9695650191       -4.3856594104       -2.7504230101
 H          4.3249215688       -4.2790052610       -1.6363782898
 C          3.6560924696       -2.4005279807       -2.4473164996
 H          2.7092693398       -1.8916048704       -2.6465473597
 H          4.1849426398       -2.4909720307       -3.3999169595
 C          4.5027382297       -1.5014674011       -1.5376112392
 H          4.7770097701       -0.6126767711       -2.1133308190
 H          5.4184945194       -2.0232274114       -1.2525196091
 H          2.2677147481       -4.1115954909        1.3782263198
 H          3.4921975980       -5.1335738712        0.6145179599
 H          5.0219695286       -3.2765387716        0.3843046506
 H          4.3971653782       -3.2596884817        2.0444547904
 O          2.9974318089       -1.2512195212        1.9079229104
 C          2.4098132193        0.0022145290        1.9108828405
 O          1.8139507691        0.2874344290        2.9707870804
 H         -0.2429591603        0.5668797099        0.9393269099
 C         -0.3238352599        1.2166228101        0.0758656400
 C          0.6882109304        2.1396689098       -0.1629718596
 C          0.5749650510        2.9785754001       -1.2620363394
 C         -0.5181711589        2.8773192305       -2.1068566097
 C         -1.5151328792        1.9485010508       -1.8748732901
 C         -1.4170361797        1.1109763606       -0.7700209603
 N         -2.4178783101        0.1496829909       -0.5257409807
 S         -4.0214318599        0.6718196114       -0.6515289610
 O         -4.3887338595        0.6796222117       -2.0452606011
 O         -4.1932569997        1.9232366513        0.0523235792
 C         -4.8788335105       -0.6418378485        0.1920964886
 C         -5.2461317308       -0.4706249986        1.5131594485
 C         -5.8928790213       -1.5067519185        2.1684343382
 C         -6.1553926715       -2.6909533083        1.4962083579
 C         -5.7800814412       -2.8476896682        0.1700410380
 C         -5.1351791807       -1.8150739083       -0.4918031517
 H         -4.8339176305       -1.8879872182       -1.5237085816
 H         -5.9883346313       -3.7692089281       -0.3492156622
 H         -6.6583665518       -3.4956439583        2.0088228377
 H         -6.1883541015       -1.3865109886        3.1983269481
 H         -5.0281986506        0.4698024212        1.9938190987
 H         -2.2697942304       -0.3265145193        0.3540955693
 H         -2.3708249791        1.8653853512       -2.5253482904
 H         -0.5934997884        3.5319320907       -2.9621943096
 H          1.3438493912        3.7055466999       -1.4641538291
 C          1.8527020202        2.1593673493        0.7991298607
 H          1.4447715100        2.2726187693        1.8139978606
 C          2.8450612806        3.2733854091        0.5488561312
 C          2.5311260009        4.6636747391        1.0109271713
 C          3.5842197105        3.8606028986        1.7119975915
 H          4.6192362806        4.1369456483        1.5782608918
 H          3.3610097101        3.4682907185        2.6937333913
 H          1.5907117708        4.8205859093        1.5176756511
 H          2.8440749613        5.4948034191        0.3974174515
 H          3.3909025608        3.1525694990       -0.3788226887
 O          3.2886555004        1.0288872893       -1.4513194591
