  62
        -98.93213637
 C         -2.3943733089       -0.8537436744        0.7520704915
 C         -3.4484973463       -0.9070678168       -0.1895085802
 C         -4.5838524927        0.0089579092        0.0400960764
 C         -4.5551906226        0.8618807604        1.0800451811
 C         -5.5701603416        1.8706706131        1.5763891054
 C         -6.7529284024        2.2849179528        0.7050278615
 C         -6.3794082693        3.0872466176       -0.5411713207
 H         -7.2825272790        3.2319669590       -1.1380984266
 H         -6.0273032299        4.0729555345       -0.2266289578
 C         -5.2948586130        2.4720190065       -1.4221406558
 H         -4.3588761317        2.4084151222       -0.8631003161
 H         -5.1209176302        3.1507864953       -2.2616202262
 C         -5.6224218555        1.0961534924       -1.9984654398
 H         -4.8401066573        0.8478059466       -2.7209164774
 H         -6.5721199433        1.1387261000       -2.5354142641
 C         -5.6881670787       -0.0510466344       -0.9760902911
 H         -6.6582159423       -0.0900917010       -0.4866882220
 H         -5.5557900467       -0.9918477704       -1.5181376238
 H         -7.3452131977        1.4153449041        0.4358899996
 H         -7.3893771877        2.9203278433        1.3269537360
 H         -5.9595390225        1.4604064815        2.5147922810
 H         -4.9951362565        2.7621705176        1.8464088101
 O         -3.5006558476        0.8967809829        1.9472991051
 C         -2.4130009663        0.0579223008        1.8100811958
 O         -1.5361507087        0.2123878749        2.6847001790
 O         -3.4757070265       -1.6841679978       -1.1795556831
 C         -1.1636409480       -1.7444874550        0.6788929941
 C         -0.1785100763       -1.1954556836       -0.3261647950
 C         -0.4006740273       -1.2843613556       -1.6960028965
 C          0.5212272374       -0.7668799035       -2.5880303809
 C          1.6768690969       -0.1527456602       -2.1385776617
 C          1.9059259676       -0.0543995418       -0.7727691221
 C          0.9820569631       -0.5802248137        0.1216326443
 H          1.1553335695       -0.4925718481        1.1863092499
 N          3.0675881560        0.5882016718       -0.3056335428
 S          4.5197706804        0.1956357667       -1.0771666374
 O          4.6321875246        0.9958546767       -2.2708447776
 O          4.6078323662       -1.2349700434       -1.2662718033
 C          5.7123053670        0.7381356494        0.1301785294
 C          6.0788241583        2.0703018279        0.1558482055
 C          6.9885119859        2.4954670934        1.1109116329
 C          7.5125159327        1.5874805015        2.0191394413
 C          7.1357137352        0.2534111159        1.9800970354
 C          6.2255446134       -0.1784161943        1.0282538879
 H          5.9117024689       -1.2074738343        0.9548178394
 H          7.5469637564       -0.4505707613        2.6855772530
 H          8.2214304816        1.9207127296        2.7605685496
 H          7.2861373051        3.5311130052        1.1434941929
 H          5.6528613892        2.7374473141       -0.5752095455
 H          3.1592968150        0.5229608442        0.6990846301
 H          2.4056439555        0.2464332777       -2.8258443701
 H          0.3383801932       -0.8419206908       -3.6497072333
 H         -1.3097714502       -1.7418442806       -2.0535707194
 H         -0.6965050265       -1.6765703987        1.6707389473
 C         -1.4922770516       -3.1991756053        0.4082275511
 C         -0.4679939494       -4.2424718201        0.7343585762
 C         -1.7108970506       -4.1265000891        1.5638078583
 H         -2.4664010734       -4.8923316581        1.4731638352
 H         -1.6237121948       -3.7155671395        2.5593499991
 H         -0.3666056338       -5.0890450305        0.0728765819
 H          0.4641594642       -3.9098594146        1.1661875093
 H         -2.1042611975       -3.3504164919       -0.4702842593
