  62
        -98.94740468
 C         -2.5326385949       -0.2298426304        0.0042305102
 C         -2.2698900821       -1.2642978453       -0.9237130943
 C         -1.6912858973       -2.4920590334       -0.3683966098
 C         -1.4508860403       -2.5769003143        0.9528475182
 C         -0.8818406436       -3.7680013548        1.6756652324
 C          0.6506937776       -3.8377133379        1.6383552885
 C          1.2439481298       -4.2663703305        0.2958587911
 H          2.2930952057       -4.5125198812        0.4707263512
 H          0.7473063855       -5.1737689176       -0.0502281332
 C          1.1690399644       -3.1867211392       -0.7920554346
 H          1.0003034656       -2.2105903744       -0.3307014214
 H          2.1288042543       -3.1183191287       -1.3108324306
 C          0.1012851848       -3.4202906050       -1.8611034498
 H          0.3565832104       -4.3064083593       -2.4477895238
 H          0.1098998535       -2.5557499737       -2.5306906695
 C         -1.3235062656       -3.5916756893       -1.3187756136
 H         -2.0170427905       -3.5451345899       -2.1625171461
 H         -1.4258738022       -4.5627159050       -0.8338818949
 H          0.9653328620       -4.5545958418        2.4005289045
 H          1.0485153576       -2.8567281519        1.9103561347
 H         -1.3015625540       -4.6853969219        1.2614689843
 H         -1.1985254969       -3.6774170885        2.7169603063
 O         -1.7337550549       -1.5659493515        1.8157400571
 C         -2.2343366603       -0.3569928412        1.3609742351
 O         -2.3919140787        0.5005138993        2.2523134892
 O         -2.5134807849       -1.1668817548       -2.1584559001
 C         -3.0381844844        1.1108376217       -0.5009017723
 C         -2.0046023612        2.1610419645       -0.1730309431
 C         -2.2938291262        3.3832356996        0.4180766876
 C         -1.2701525804        4.2514367129        0.7594059381
 C          0.0524349062        3.9148389579        0.5392693943
 C          0.3497683169        2.7028497237       -0.0755688874
 C         -0.6781454602        1.8571174858       -0.4523234491
 H         -0.4385671806        0.9193950358       -0.9330107565
 N          1.6790690324        2.3212317242       -0.3314334108
 S          2.0279857858        0.6667338243       -0.3289398758
 O          1.7132484010        0.1384234945       -1.6324264505
 O          1.4118068322        0.0182498230        0.8067001347
 C          3.7987799392        0.7140660610       -0.1251691244
 C          4.5823941582        1.0118393111       -1.2243200421
 C          5.9575379652        1.0800843371       -1.0677866555
 C          6.5234372083        0.8500062421        0.1776595159
 C          5.7247817218        0.5488313586        1.2705252157
 C          4.3481835464        0.4812608170        1.1210298939
 H          3.6868354255        0.2443423474        1.9392831678
 H          6.1668668651        0.3664019502        2.2367189440
 H          7.5940190680        0.9028913674        0.2968486855
 H          6.5817570346        1.3108880708       -1.9157889749
 H          4.0970856217        1.1716433436       -2.1729244205
 H          2.3508253920        2.8507552483        0.2073196128
 H          0.8488491051        4.5783826555        0.8400272539
 H         -1.5063145062        5.1951860184        1.2273623648
 H         -3.3167643951        3.6481704709        0.6298940820
 H         -3.1009003472        1.0096833486       -1.5950506315
 C         -4.4155189426        1.4185037066        0.0453322151
 C         -5.3576947113        2.2895373873       -0.7294663411
 C         -5.6124067286        0.8167349042       -0.6257521760
 H         -6.4299769202        0.4740433243       -0.0096743564
 H         -5.4336815555        0.2017283909       -1.4957481639
 H         -6.0058625865        2.9594330902       -0.1850605520
 H         -5.0138913362        2.6778326662       -1.6761965075
 H         -4.4265142903        1.4819967969        1.1276202945
