  62
        -98.94429261
 C         -1.7814885111       -1.2669192486        0.2648119800
 C         -1.3436745685       -0.1768103231       -0.5192439169
 C         -1.8919512173        1.1479224704       -0.1804931464
 C         -2.7795122562        1.2413963642        0.8266419646
 C         -3.5002396382        2.4768893864        1.2912010841
 C         -4.6512305796        2.8819532877        0.3487336725
 C         -4.3813501987        2.6753818323       -1.1410431982
 H         -4.0669455486        1.6433063970       -1.3071445329
 H         -5.3262986155        2.8153985073       -1.6725735307
 C         -3.3562347531        3.6247698548       -1.7572714644
 H         -3.7514494890        4.6429871973       -1.7251206018
 H         -3.2371932678        3.3461285033       -2.8071781543
 C         -1.9774830881        3.6328554764       -1.0985874736
 H         -2.0264413283        4.1084577085       -0.1225088468
 H         -1.3224588665        4.2559960727       -1.7150882182
 C         -1.2959208903        2.2705227526       -0.9931918027
 H         -1.1554790062        1.8626455534       -2.0003616302
 H         -0.2871592963        2.4206380769       -0.5847400587
 H         -4.9004974750        3.9276861103        0.5344836814
 H         -5.5219529959        2.2761178885        0.6099058900
 H         -2.7844976994        3.2851045400        1.4162138540
 H         -3.9176087709        2.2511239861        2.2749821520
 O         -3.1942292458        0.1583347930        1.5435660402
 C         -2.6848086348       -1.1048135187        1.3117797965
 O         -3.1099880004       -1.9882579670        2.0864031036
 O         -0.5274857875       -0.3045009197       -1.4710550964
 C         -1.2104883035       -2.6501931958        0.0140663005
 C          0.2986226327       -2.5963662675        0.0173435218
 C          1.0853828024       -3.3456745293       -0.8493481846
 C          2.4652756661       -3.2413180392       -0.8156178174
 C          3.0880895972       -2.3723199036        0.0614620733
 C          2.3101287982       -1.6265693892        0.9389447004
 C          0.9325381707       -1.7671689673        0.9340355706
 H          0.3460681731       -1.1805479755        1.6267389403
 N          2.8880890830       -0.7016761648        1.8359876225
 S          2.5253337032        0.9154502924        1.5722231505
 O          3.2951156254        1.6374896440        2.5637959741
 O          1.0999157535        1.1155615210        1.6038437179
 C          3.1920078872        1.2546883452       -0.0481255774
 C          4.4448648078        1.8328573293       -0.1319168608
 C          5.0090357150        2.0378660319       -1.3800570272
 C          4.3176140271        1.6525873728       -2.5190991652
 C          3.0640662416        1.0703970391       -2.4166369352
 C          2.4896629551        0.8645578867       -1.1707244003
 H          1.5113831158        0.4181852065       -1.0738967383
 H          2.5200700701        0.7682279971       -3.2970955890
 H          4.7567680040        1.8078678102       -3.4919899352
 H          5.9829559369        2.4932675725       -1.4604212104
 H          4.9415499166        2.1183461270        0.7814713444
 H          3.8913747503       -0.7970942222        1.9224025512
 H          4.1626449388       -2.2672365840        0.0683929397
 H          3.0619345394       -3.8294060938       -1.4959266361
 H          0.6156179577       -4.0082639188       -1.5578579605
 H         -1.5387440935       -3.2745641039        0.8586130824
 C         -1.7815206040       -3.2236603158       -1.2681329719
 C         -2.0141182003       -4.6976430565       -1.4066412414
 C         -3.1779529121       -3.7662542790       -1.2551075529
 H         -3.8111346534       -3.5836651531       -2.1103552465
 H         -3.7041117124       -3.7485557500       -0.3114283727
 H         -1.8522342691       -5.1573411067       -2.3700240945
 H         -1.7590829816       -5.3263604444       -0.5669328407
 H         -1.4688604636       -2.6675587748       -2.1446404772
