  62
        -98.94041148
 C         -2.3807861258        0.7376129966        0.0825036383
 C         -3.5121249046        0.9905557972       -0.7293668350
 C         -4.8055330165        0.5911922049       -0.1646607310
 C         -4.8562637413        0.0445799349        1.0640015258
 C         -6.1022070998       -0.3934655731        1.7852549242
 C         -6.5799063143       -1.8022391132        1.4066640516
 C         -7.2056860842       -1.9260545968        0.0168280113
 H         -7.6886871693       -2.9040404971       -0.0309619177
 H         -7.9850400548       -1.1721624480       -0.0979632106
 C         -6.2040049171       -1.8138393827       -1.1409679339
 H         -6.3943716386       -2.6081302152       -1.8662915217
 H         -5.1905757344       -1.9637850274       -0.7612222664
 C         -6.2571625944       -0.4868321583       -1.8981387436
 H         -5.4835822753       -0.5008199567       -2.6702920449
 H         -7.2251992384       -0.3858591745       -2.3937742963
 C         -6.0265068496        0.7499780503       -1.0198562925
 H         -5.8636861942        1.6099132511       -1.6741118825
 H         -6.9029145793        0.9414901113       -0.4013282919
 H         -7.3265870190       -2.1020591567        2.1455320077
 H         -5.7354916100       -2.4903821293        1.4891976469
 H         -5.8625000055       -0.3860626415        2.8506148958
 H         -6.9021788136        0.3247806681        1.6037204413
 O         -3.7461755035       -0.1613063152        1.8225017193
 C         -2.4824095634        0.1590762293        1.3474229408
 O         -1.5547574316       -0.1107755015        2.1338666263
 H          1.6304672017        0.8630147643        0.3491074872
 C          1.2176610481       -0.0429219515       -0.0619726803
 C         -0.0993623315       -0.0920510424       -0.4889478123
 C         -0.5823163268       -1.2878369034       -1.0156419400
 C          0.2280450495       -2.4030279085       -1.0982583894
 C          1.5468690262       -2.3455383480       -0.6822817955
 C          2.0411551631       -1.1564741650       -0.1617793275
 N          3.3713452707       -1.0595891005        0.2769795174
 S          4.1870481767        0.3951026452        0.0070771694
 O          3.9309812178        1.2878754129        1.1091115835
 O          3.8744105540        0.8984656064       -1.3110271704
 C          5.8813957244       -0.1607549119        0.0636786645
 C          6.5192223888       -0.4907401365       -1.1175784764
 C          7.8274399721       -0.9457132092       -1.0692735794
 C          8.4718508732       -1.0644136959        0.1530187465
 C          7.8193253065       -0.7284373783        1.3299579958
 C          6.5113491994       -0.2720333959        1.2888140094
 H          5.9678777461        0.0098089011        2.1756412535
 H          8.3248163432       -0.8186696217        2.2778766412
 H          9.4901888028       -1.4179301829        0.1883589266
 H          8.3384855454       -1.2038719098       -1.9828080754
 H          5.9821210178       -0.3718894710       -2.0448942371
 H          3.9318358727       -1.8605923599        0.0203207605
 H          2.1832208914       -3.2144646478       -0.7543287970
 H         -0.1659424980       -3.3238484378       -1.5017926791
 H         -1.6077574216       -1.3302823365       -1.3577311178
 C         -1.0070301440        1.1121975958       -0.4384537445
 H         -1.1688876101        1.4551769604       -1.4724164296
 C         -0.4347902630        2.2612737466        0.3650278670
 C          0.5316135907        3.2179230898       -0.2648898361
 C         -0.8649996170        3.6610325394        0.0485070928
 H         -1.0171900731        4.3510380905        0.8647659761
 H         -1.5557109866        3.7926357461       -0.7715631293
 H          0.7974367064        3.0519395813       -1.2984249945
 H          1.3454698545        3.5963602545        0.3361438921
 H         -0.2890150867        2.0053649630        1.4093760831
 O         -3.4430334753        1.5209746658       -1.8708651895
