  62
        -98.94417888
 C         -1.7472150375       -1.4208481688       -0.0012188304
 C         -2.8791558308       -0.7759935614        0.5554115810
 C         -3.3740249717        0.4070417149       -0.1584497593
 C         -2.7288974745        0.8250828657       -1.2624040720
 C         -3.0972415788        2.0387714963       -2.0648075717
 C         -2.3253727440        3.2751285424       -1.5849725327
 C         -2.3773913143        3.4878611227       -0.0720317482
 H         -1.8190337431        2.6831743835        0.4138379211
 H         -1.8364839561        4.4127404798        0.1429509595
 C         -3.7940086601        3.5740093500        0.5137279967
 H         -4.5081051251        3.7985464973       -0.2796608004
 H         -3.8257315719        4.4034104128        1.2235866670
 C         -4.2522690571        2.3252507882        1.2696247689
 H         -3.4852651140        2.0374275933        1.9938746022
 H         -5.1545805479        2.5804559841        1.8320954183
 C         -4.5815516445        1.1020486201        0.4045667369
 H         -5.0813749722        0.3678371718        1.0434274015
 H         -5.2695563794        1.3897323669       -0.3929877619
 H         -1.2758479872        3.1614838432       -1.8670899998
 H         -2.7264511855        4.1537112468       -2.0944614863
 H         -4.1688709433        2.2113249274       -1.9832406318
 H         -2.8461775658        1.8490758080       -3.1099614994
 O         -1.6330144373        0.1999633272       -1.7543160630
 C         -1.0825512031       -0.9001954054       -1.1141744103
 O         -0.0353766883       -1.3151070757       -1.6442609074
 O         -3.4477088043       -1.1708304171        1.6109540396
 C         -1.1686777851       -2.6088635892        0.7526054306
 C          0.3012751250       -2.3568933348        0.9672857798
 C          1.3185888739       -3.1863478706        0.5158415106
 C          2.6446275984       -2.8129466338        0.6579132847
 C          2.9815005161       -1.5965873392        1.2239929202
 C          1.9696959193       -0.7702263731        1.6931285615
 C          0.6491379592       -1.1658994731        1.5939757688
 H         -0.1337494437       -0.5046699391        1.9472886900
 N          2.3066469341        0.5313063256        2.1731955598
 S          2.0484988084        1.6671979270        0.9433018440
 O          2.3931268387        2.9508534495        1.5199215932
 O          0.7072037979        1.5742779486        0.4077122594
 C          3.2637946799        1.1830771191       -0.2569960611
 C          4.5509417238        1.6628332849       -0.1076791920
 C          5.5276759484        1.2471030868       -0.9973896716
 C          5.2020937788        0.3572813396       -2.0106301142
 C          3.9058155764       -0.1155757403       -2.1436512017
 C          2.9205437048        0.2974923222       -1.2591334413
 H          1.9050394978       -0.0618017515       -1.3367683621
 H          3.6481238700       -0.8105305423       -2.9266683937
 H          5.9629277889        0.0289560277       -2.7012088676
 H          6.5367842806        1.6129264215       -0.8966638472
 H          4.7519515444        2.3526921400        0.6954155986
 H          1.7442365485        0.8082131384        2.9680571645
 H          4.0071972901       -1.2738353015        1.2983672233
 H          3.4237881781       -3.4640782730        0.2931816142
 H          1.0713326096       -4.1098837456        0.0184753957
 H         -1.6710217963       -2.5766782745        1.7345350816
 C         -1.4817412147       -3.9687771632        0.1505934392
 C         -2.7180468703       -4.1778536784       -0.6706729472
 C         -1.3686682583       -4.2479568221       -1.3169786527
 H         -1.0011743595       -5.2158343304       -1.6250995124
 H         -1.0602706189       -3.4376223894       -1.9578294677
 H         -3.2759208004       -5.0923623577       -0.5361140563
 H         -3.3357744480       -3.3138472501       -0.8700574513
 H         -1.2106422512       -4.7779859083        0.8218807858
