  62
        -98.93997897
 C         -0.8453668624       -1.4763048896        0.7466905211
 C         -1.7652944291       -1.5417778392       -0.3235382202
 C         -2.8829715838       -0.5756769458       -0.2962657601
 C         -2.9276617999        0.3381077545        0.6907556898
 C         -3.9634037285        1.4091570485        0.9086658101
 C         -3.8308685738        2.6055668861       -0.0519351106
 C         -3.4110276090        2.2542288024       -1.4772288075
 H         -3.1647907498        3.1853912274       -1.9942401491
 H         -2.5033072214        1.6485411572       -1.4460353006
 C         -4.4770072302        1.5376868911       -2.3020842160
 H         -5.3375435730        2.1997567630       -2.4252975129
 H         -4.0583753686        1.3485711079       -3.2938762701
 C         -4.9719647951        0.2114742571       -1.7279216516
 H         -5.6122842021       -0.2536708901       -2.4834159369
 H         -5.5952978330        0.3794394220       -0.8540235573
 C         -3.8710603334       -0.7977978651       -1.4157258447
 H         -3.2661951286       -0.9557274861       -2.3158152941
 H         -4.3396181655       -1.7682711198       -1.2094650751
 H         -3.0766905975        3.2792867168        0.3559963223
 H         -4.7828149860        3.1384296417       -0.0738030780
 H         -4.9537468382        0.9655194588        0.8440533212
 H         -3.8302790797        1.7672723073        1.9315582111
 O         -1.9717671974        0.4112044622        1.6615862651
 C         -0.9293466643       -0.4910000923        1.7298049148
 O         -0.1549008555       -0.3183395748        2.6929279656
 O         -1.6763852573       -2.3745336025       -1.2638145582
 C          0.3201730762       -2.4485572618        0.8170748829
 C          1.2389658749       -2.1846192761       -0.3512913858
 C          1.5849015908       -3.1327055353       -1.3037945040
 C          2.4096726403       -2.7871430475       -2.3610789848
 C          2.9160284392       -1.5060909500       -2.4795815725
 C          2.5829285744       -0.5515026633       -1.5241311598
 C          1.7473591722       -0.8971763341       -0.4759830648
 H          1.4862640814       -0.1571163833        0.2669058177
 N          3.0567918390        0.7657354166       -1.6157564781
 S          3.4818633414        1.5884618083       -0.2221839986
 O          4.3144493331        2.6766881501       -0.6920876529
 O          4.0914192129        0.7070181430        0.7468365500
 C          1.9634631382        2.2666063196        0.4095356096
 C          1.0807353402        2.8589557428       -0.4716261994
 C         -0.0760916520        3.4330126777        0.0288969508
 C         -0.3260131735        3.4094367347        1.3928075657
 C          0.5696269967        2.8109791634        2.2635806240
 C          1.7278965536        2.2342822165        1.7690484986
 H          2.4397630036        1.7418023321        2.4123445003
 H          0.3668477225        2.7754398246        3.3216251795
 H         -1.2254210976        3.8576787187        1.7854424069
 H         -0.7784878570        3.8951166645       -0.6464263255
 H          1.3071178053        2.8569321061       -1.5250491791
 H          3.7060160778        0.9378962950       -2.3696151395
 H          3.5605348457       -1.2415171437       -3.3040961309
 H          2.6658636505       -3.5293883116       -3.1019241002
 H          1.2018243687       -4.1366790855       -1.2268603036
 H          0.8697805142       -2.1959701460        1.7358909251
 C         -0.1632774820       -3.8789907772        0.9138237460
 C          0.7251877408       -4.9269379236        1.5115353047
 C         -0.4800185282       -4.4484438953        2.2625979141
 H         -1.3271269012       -5.1112226191        2.3566824137
 H         -0.3287492366       -3.8094716682        3.1207660629
 H          0.7055963788       -5.9216976805        1.0928050444
 H          1.6977735988       -4.6156739729        1.8624747234
 H         -0.8068740454       -4.1616620773        0.0894980948
