  62
        -98.93841382
 C          1.8561216421        1.0260789517        0.3209407439
 C          2.1644565999       -0.1678240088       -0.3694396106
 C          3.4800051658       -0.7830294991       -0.0912830984
 C          4.2935019744       -0.2095641834        0.8137934230
 C          5.6747319745       -0.6350500228        1.2347834216
 C          6.7474037529       -0.2807179989        0.1919950429
 C          6.3612748983       -0.5796908516       -1.2541767374
 H          7.1522618298       -0.1849662673       -1.8973281728
 H          5.4450058097       -0.0396669676       -1.4994061030
 C          6.1838277806       -2.0590737517       -1.5872377010
 H          7.1163570614       -2.5878848753       -1.3775990164
 H          5.9972667454       -2.1297570395       -2.6619420936
 C          5.0451001964       -2.7770749112       -0.8599194372
 H          5.3213738474       -3.0151002438        0.1637519899
 H          4.8875328331       -3.7334127902       -1.3676000246
 C          3.7069372325       -2.0452706149       -0.8890600223
 H          2.9238007423       -2.7424271563       -0.5662266748
 H          3.4594225350       -1.7957536237       -1.9271631807
 H          7.6643544847       -0.8156501250        0.4449044614
 H          6.9499947458        0.7904292903        0.2672847427
 H          5.6868927106       -1.6975875622        1.4588638306
 H          5.8985530419       -0.0983778927        2.1594785561
 O          3.9477259641        0.9320479225        1.4734185023
 C          2.7498187512        1.5743604950        1.2471800319
 O          2.5910790653        2.6142986399        1.9173922044
 O          1.3966387975       -0.7284368890       -1.1993348024
 C          0.5628782143        1.8043419092        0.1319724876
 C         -0.5837126710        1.1819227497        0.8918935886
 C         -1.2467426463        1.8859094304        1.8897889099
 C         -2.3230647598        1.3235371666        2.5546177837
 C         -2.7598500622        0.0500225023        2.2371476671
 C         -2.0972098410       -0.6633404480        1.2469385074
 C         -1.0236101332       -0.0960860294        0.5777771801
 H         -0.5117951533       -0.6562709060       -0.1906747579
 N         -2.5463448690       -1.9563664199        0.9022862295
 S         -4.1325093297       -2.0268799658        0.3612484518
 O         -5.0226669822       -1.9794577201        1.4940656547
 O         -4.2156170321       -3.2133338721       -0.4606028476
 C         -4.3219984448       -0.5533851416       -0.6259530978
 C         -5.0424032146        0.5159454170       -0.1346720553
 C         -5.1057020362        1.6801780987       -0.8833357648
 C         -4.4467344892        1.7557412679       -2.1002664118
 C         -3.7277679692        0.6718746359       -2.5804857295
 C         -3.6595869497       -0.4939481865       -1.8359570011
 H         -3.1110346207       -1.3565081579       -2.1799977248
 H         -3.2155004533        0.7310562552       -3.5276272611
 H         -4.4938389519        2.6648830294       -2.6789522680
 H         -5.6634744148        2.5251639640       -0.5132847264
 H         -5.5387981765        0.4147987265        0.8163644681
 H         -1.9370607910       -2.4119381004        0.2369630836
 H         -3.6015994376       -0.4024066726        2.7362989667
 H         -2.8278782970        1.8827587692        3.3274323404
 H         -0.9063210375        2.8775934406        2.1498702104
 H          0.7530214192        2.7943582834        0.5670414309
 C          0.1836629875        1.9857581989       -1.3263780751
 C         -0.7548556100        3.0921428016       -1.6978532012
 C          0.6930284359        3.1780974511       -2.0757315653
 H          0.9669343606        3.0558066079       -3.1129348089
 H          1.3213856671        3.8746011524       -1.5394192016
 H         -1.4800985256        2.9103071614       -2.4752337815
 H         -1.1104453463        3.7325515377       -0.9052497439
 H          0.1053642404        1.0530761863       -1.8685348030
