  62
        -98.93987647
 C          2.2610732697        0.9374105800        0.6468234792
 C          3.3703710795        0.7930370895       -0.2222434109
 C          4.2693784395       -0.3361022304        0.0647679996
 C          4.0017236397       -1.1540361898        1.0977578902
 C          4.8033702497       -2.3691357696        1.4631480408
 C          4.2648423495       -3.6250812000        0.7639500616
 C          4.0438144793       -3.4497702509       -0.7385835684
 H          3.6943684892       -4.4081274411       -1.1289768978
 H          3.2395798593       -2.7271685510       -0.8976716587
 C          5.2895043592       -3.0034088214       -1.5167906389
 H          6.1844937893       -3.1946304811       -0.9237638089
 H          5.3676547490       -3.6039927619       -2.4254043685
 C          5.2733038392       -1.5369471917       -1.9516250798
 H          6.0811526790       -1.3873952021       -2.6727368600
 H          4.3326079391       -1.3168772019       -2.4625537898
 C          5.4645700294       -0.5076486910       -0.8308243804
 H          5.6285710893        0.4667804287       -1.2996859311
 H          6.3501495995       -0.7611892606       -0.2449553204
 H          4.9657774795       -4.4435859399        0.9379134220
 H          3.3089642196       -3.8925566797        1.2208166920
 H          4.7391463499       -2.5098719889        2.5434448009
 H          5.8438150096       -2.2060364798        1.1887149405
 O          2.9290945998       -0.9842059692        1.9137225703
 C          2.0399249198        0.0561097507        1.7098269298
 O          1.1103012699        0.0998941912        2.5424357499
 O          3.6240822794        1.5578922289       -1.1893159414
 C          1.2309619697        2.0466075900        0.4933522987
 C          0.2569325295        1.7110969093       -0.6113318110
 C          0.6137696893        1.7853720185       -1.9539137411
 C         -0.3010925809        1.4586478779       -2.9379302107
 C         -1.5815506909        1.0527550882       -2.6066870003
 C         -1.9489521907        0.9771235790       -1.2680632802
 C         -1.0297434005        1.3070712196       -0.2821918605
 H         -1.3186898103        1.2250578802        0.7555323396
 N         -3.2576358106        0.6074081592       -0.9091032697
 S         -3.4886196104       -0.3315651899        0.4760194909
 O         -3.4250939802        0.5239557608        1.6336418604
 O         -2.5988111105       -1.4716459000        0.4558346214
 C         -5.1744282805       -0.8518354900        0.2137520215
 C         -5.4313675906       -2.1113323503       -0.2933425777
 C         -6.7461458906       -2.4864120204       -0.5224878373
 C         -7.7753749906       -1.5991971202       -0.2460570476
 C         -7.5019059304       -0.3382863599        0.2633181615
 C         -6.1900790104        0.0421701702        0.4965823911
 H         -5.9290367303        1.0064890104        0.9000518205
 H         -8.3046544504        0.3479207302        0.4796838713
 H         -8.7972959906       -1.8933232503       -0.4260292473
 H         -6.9617114207       -3.4671166807       -0.9149130866
 H         -4.5992075806       -2.7692822305       -0.4864273274
 H         -3.7769616907        0.2274969888       -1.6897201894
 H         -2.2933797910        0.7973887477       -3.3771732500
 H         -0.0115645311        1.5152041673       -3.9764713408
 H          1.6195318692        2.0736143983       -2.2156350914
 H          0.6665476798        2.0539250305        1.4362737288
 C          1.8526585097        3.4158229198        0.2989569977
 C          1.0210512097        4.6298432700        0.5785478371
 C          2.1444314999        4.2616093405        1.4997717772
 H          3.0366378699        4.8695071505        1.4968346367
 H          1.8968651400        3.8542117311        2.4697507175
 H          1.1396332997        5.4935875896       -0.0572066234
 H          0.0102377098        4.4716078203        0.9245370074
 H          2.5557397895        3.4612494093       -0.5214587724
