  62
        -98.94780836
 C         -0.7702151114       -1.2366184193        0.5927890797
 C         -1.1772669211       -0.7013413989       -0.6530992202
 C         -2.1226050806        0.4195804415       -0.5825993501
 C         -2.5016329904        0.9008426716        0.6147325000
 C         -3.4949799999        2.0058819220        0.8519054201
 C         -4.9569610101        1.5368947927        0.8244345200
 C         -5.5076944902        1.2003996631       -0.5621756600
 H         -6.5912010203        1.1102048936       -0.4618269700
 H         -5.3121711298        2.0305816531       -1.2413316999
 C         -4.9600549508       -0.1006252071       -1.1655618902
 H         -4.5097560211       -0.7076539474       -0.3766210703
 H         -5.7845002911       -0.6824531566       -1.5841511203
 C         -3.9341661307        0.0996022926       -2.2813113402
 H         -4.4109959805        0.5878532529       -3.1340115001
 H         -3.5871884712       -0.8841504575       -2.6069868203
 C         -2.7066210104        0.9224088720       -1.8677991400
 H         -1.9433390004        0.8134051217       -2.6415598201
 H         -2.9723876399        1.9745579621       -1.7798119699
 H         -5.0587823205        0.6673364526        1.4779840099
 H         -5.5644012797        2.3410523529        1.2463130101
 H         -3.2845498397        2.4087704918        1.8445186902
 H         -3.3554201595        2.7953895920        0.1147639502
 O         -2.0066661306        0.4209235612        1.7880018799
 C         -1.1573465811       -0.6733740492        1.8073081898
 O         -0.8183830913       -1.0417598595        2.9519687097
 H          1.6126124191       -0.2814115304        0.5423438098
 C          2.0228018787       -1.0554851005       -0.0903961103
 C          1.3648544081       -2.2753290402       -0.1796132504
 C          1.9126701077       -3.2697869303       -0.9802140506
 C          3.0842722778       -3.0379402408       -1.6792568005
 C          3.7337657784       -1.8211453611       -1.5915491004
 C          3.1948011688       -0.8198709409       -0.7900401903
 N          3.8087087994        0.4339419088       -0.7129912101
 S          3.4967295999        1.5281891688        0.4952810101
 O          4.5131658904        2.5443745083        0.3173075102
 O          3.4582755896        0.9080994386        1.7997940600
 C          1.9155747303        2.2333281796        0.0841525001
 C          1.6228400004        2.4956578099       -1.2389454698
 C          0.4301778407        3.1291158505       -1.5469305897
 C         -0.4378999491        3.4985846407       -0.5320965997
 C         -0.1347144493        3.2203036604        0.7910489603
 C          1.0524110504        2.5788614398        1.1042753402
 H          1.3210285903        2.3337235696        2.1205203102
 H         -0.8131397892        3.4999525306        1.5809510403
 H         -1.3545962689        4.0124447512       -0.7731283596
 H          0.1840072108        3.3376732707       -2.5754944997
 H          2.3237468802        2.2024109796       -2.0026332799
 H          4.7185226395        0.5254609084       -1.1365386501
 H          4.6460004884       -1.6408799614       -2.1389018204
 H          3.4985887074       -3.8174167409       -2.3005015506
 H          1.4218665972       -4.2258346701       -1.0594088107
 C          0.1074830080       -2.4728590097        0.6303568995
 H          0.4022999780       -2.6076183699        1.6823845295
 C         -0.7023966725       -3.6781170392        0.1924563494
 C         -0.4323239332       -5.0316336294        0.7756648992
 C         -1.6731066828       -4.2842545989        1.1592769893
 H         -2.6244583730       -4.6337632884        0.7869579492
 H         -1.7247369526       -3.8465025290        2.1460325393
 H         -0.5354202236       -5.8982071793        0.1399451191
 H          0.3553868268       -5.1124111299        1.5096222892
 H         -1.0041024125       -3.6178934390       -0.8472780706
 O         -0.7881917913       -1.1457780489       -1.7635011503
