  62
        -98.92954755
 C          2.4782987504        0.9676699105        0.5477152508
 C          2.8649909203       -0.2881527196        1.0805558207
 C          4.2651663703       -0.6949052996        0.8848105309
 C          5.1024625404        0.1320237205        0.2362693311
 C          6.5737258205       -0.0508817294       -0.0400332187
 C          7.0343668806       -1.4342385094       -0.5210845288
 C          6.0115575107       -2.2004641193       -1.3726173390
 H          5.1960291908       -1.5375350792       -1.6668060491
 H          6.4982744809       -2.5439335992       -2.2873066090
 C          5.4384228706       -3.4266675194       -0.6577993093
 H          6.2524784905       -3.9472335194       -0.1486858792
 H          5.0303747107       -4.1104372693       -1.4060136494
 C          4.3230447504       -3.1404546295        0.3473525006
 H          3.4151138205       -2.8355850794       -0.1807853995
 H          4.0912618704       -4.0730127196        0.8676848504
 C          4.6352363003       -2.0581546996        1.3937077608
 H          3.9981354901       -2.2385884697        2.2639227706
 H          5.6750848002       -2.1018416696        1.7086636009
 H          7.3081512404       -2.0455656195        0.3376940612
 H          7.9463480707       -1.2792782093       -1.0999532786
 H          6.8159452206        0.7000641207       -0.7956456385
 H          7.1249316403        0.2146801405        0.8666152115
 O          4.6937985605        1.3338921906       -0.2547013788
 C          3.3824902405        1.7801805306       -0.1362175290
 O          3.1853631006        2.8845070406       -0.6731653989
 H         -1.3484148897        0.1047547104        0.9309493000
 C         -1.0522363895        0.2687336605       -0.0947163499
 C          0.1570413005        0.8844520206       -0.3789039996
 C          0.5253395707        1.0556793907       -1.7097937995
 C         -0.3085232591        0.6274861608       -2.7267118397
 C         -1.5286390291        0.0409163708       -2.4393412300
 C         -1.9015321993       -0.1419983794       -1.1130056301
 N         -3.1242809894       -0.7450981694       -0.7810689004
 S         -3.9413223796       -0.1490207396        0.5738906196
 O         -3.8516032296        1.2929964704        0.6026049298
 O         -3.4659465098       -0.8412131297        1.7452175096
 C         -5.6093154696       -0.6604791795        0.2072892692
 C         -5.9906468796       -1.9546317096        0.5077365890
 C         -7.2783668695       -2.3619108596        0.1972074288
 C         -8.1577352995       -1.4742107595       -0.4051374413
 C         -7.7610995494       -0.1781256194       -0.6986699010
 C         -6.4742561595        0.2356301205       -0.3921783208
 H         -6.1247035494        1.2356481606       -0.5929718206
 H         -8.4480922293        0.5105470506       -1.1633990211
 H         -9.1597578394       -1.7935819695       -0.6442312915
 H         -7.5913944296       -3.3676119396        0.4269831786
 H         -5.2763644897       -2.6052875596        0.9849107491
 H         -3.7380106893       -0.8598589093       -1.5759982205
 H         -2.1834511090       -0.2793149291       -3.2354916001
 H         -0.0114432589        0.7663043810       -3.7554560197
 H          1.4651046408        1.5374632608       -1.9360856493
 C          1.0295851603        1.3694960504        0.7503100306
 H          0.7107653602        0.8299683003        1.6577674605
 C          0.8397487403        2.8548597504        1.0242801907
 C          0.2585876704        3.8124531905        0.0326401208
 C         -0.5364772298        3.4141443304        1.2377371506
 H         -0.6799620099        4.1385236803        2.0255473106
 H         -1.3806453897        2.7546927204        1.0910253104
 H         -0.0453620094        3.4286262806       -0.9282902293
 H          0.6825826104        4.8038326605       -0.0110230591
 H          1.6255619502        3.2475962203        1.6623339009
 O          2.0700329202       -1.0364830097        1.7118673005
