  62
        -98.94321516
 C         -0.9793286628       -1.7349280720       -0.3235368762
 C          0.1924060440       -1.6299388938       -1.1055516704
 C          1.4305585564       -2.1767992235       -0.5211186832
 C          1.3847726138       -2.6993217988        0.7179654203
 C          2.5310288850       -3.2973859081        1.4877724529
 C          3.4431377977       -2.2332433853        2.1317446101
 C          3.5968003738       -0.9393173831        1.3329855556
 H          2.6016092411       -0.5480678137        1.1088828881
 H          4.0758689074       -0.1999787991        1.9819041302
 C          4.4347650219       -1.0498255073        0.0589896266
 H          5.4782788994       -1.2061818991        0.3450130161
 H          4.3765391965       -0.0913166566       -0.4636249757
 C          4.0501718117       -2.1675980879       -0.9086437107
 H          4.2584109155       -3.1334991835       -0.4560164117
 H          4.7066928422       -2.0823236176       -1.7799074586
 C          2.6210057298       -2.1227255090       -1.4465910667
 H          2.4866481272       -1.2068552027       -2.0315318970
 H          2.4998071492       -2.9486219715       -2.1589976163
 H          3.0098882335       -1.9619169170        3.0971097100
 H          4.4252432982       -2.6731334427        2.3129339945
 H          2.0963425623       -3.9088214481        2.2812490468
 H          3.0946533685       -3.9564269201        0.8320553129
 O          0.2465378796       -2.7205098443        1.4643446517
 C         -0.9541302820       -2.2353854258        0.9772542570
 O         -1.9062756564       -2.3203282372        1.7773744980
 O          0.2064474313       -1.1039260567       -2.2521442046
 C         -2.2875250378       -1.1999646789       -0.8818028698
 C         -2.7297620519       -0.0327347252       -0.0353397988
 C         -3.9824205013        0.0782155368        0.5515795236
 C         -4.2724653049        1.1546318526        1.3731785791
 C         -3.3228853115        2.1237965312        1.6380978429
 C         -2.0704296666        2.0293865909        1.0398616896
 C         -1.7988701847        0.9748371492        0.1862627280
 H         -0.8279056945        0.9027410620       -0.2807745133
 N         -1.0807293995        2.9946588379        1.2702985321
 S          0.5375247002        2.5720557382        1.2089718137
 O          0.7721458101        1.2226910353        1.6667505532
 O          1.2033748392        3.6185190649        1.9583991354
 C          0.9591774401        2.7512459604       -0.5105291998
 C          1.7329314051        1.7918685080       -1.1301282967
 C          2.0765367369        1.9625444429       -2.4615141685
 C          1.6419129931        3.0858675317       -3.1466740630
 C          0.8678989525        4.0438598378       -2.5090105150
 C          0.5233379966        3.8795004596       -1.1774267682
 H         -0.0752628532        4.6015354631       -0.6477951459
 H          0.5315224980        4.9160143503       -3.0462125555
 H          1.9081323511        3.2128303565       -4.1841496135
 H          2.6718866772        1.2132906977       -2.9586584520
 H          2.0362240558        0.9233698243       -0.5673459187
 H         -1.2823904492        3.6558111076        2.0056127794
 H         -3.5417317216        2.9437093774        2.3050617853
 H         -5.2472082329        1.2281496352        1.8313374072
 H         -4.7249920487       -0.6840160853        0.3825637112
 H         -2.0449634010       -0.8254736431       -1.8873101297
 C         -3.3185937306       -2.3007210756       -1.0011113470
 C         -4.4224835134       -2.1896455842       -2.0088873518
 C         -3.3118740110       -3.1730536614       -2.2194328568
 H         -3.5221050447       -4.2253026590       -2.1002222981
 H         -2.5739665958       -2.9588994012       -2.9786594576
 H         -5.3988098778       -2.5690797059       -1.7480497917
 H         -4.4426411101       -1.3079229295       -2.6310599776
 H         -3.5362262433       -2.7727974537       -0.0497265916
