  62
        -98.93390820
 C         -1.5851659792       -0.9913171202        0.8964546295
 C         -2.8202127292       -1.1995564603        0.2359984995
 C         -3.8336685492       -0.1381443903        0.4039533992
 C         -3.5410707393        0.9586273199        1.1214863890
 C         -4.4230838993        2.1390141199        1.4445310487
 C         -5.3105223293        2.6929662696        0.3218626385
 C         -4.7068579392        2.6019250194       -1.0872184714
 H         -4.7677484292        3.5823272493       -1.5632181416
 H         -3.6507237692        2.3340786894       -1.0256099313
 C         -5.4349920091        1.5983008592       -1.9844402512
 H         -6.5113251092        1.7143711992       -1.8392656513
 H         -5.2187905491        1.8383968589       -3.0282434313
 C         -5.0564022491        0.1336162392       -1.7693714709
 H         -4.0382178091       -0.0418094809       -2.1265433808
 H         -5.7205072591       -0.4795003809       -2.3833440608
 C         -5.1324879192       -0.3630696105       -0.3162862908
 H         -5.9686224492        0.0888128096        0.2117433991
 H         -5.2803194592       -1.4462013405       -0.3401528506
 H         -6.2716234393        2.1807814396        0.3303391986
 H         -5.5107229993        3.7377074897        0.5660305683
 H         -5.0529245094        1.8681170401        2.2971519887
 H         -3.7383919894        2.9184306100        1.7876300086
 O         -2.3251343893        1.1318658800        1.7153273490
 C         -1.3327321093        0.1740705400        1.6224277293
 O         -0.2797732793        0.4690945301        2.2236272793
 H          2.2401723608       -1.5503093601        0.8901995199
 C          1.8280316908       -1.4580422103       -0.1031651602
 C          0.4720665808       -1.6539310304       -0.3150973402
 C         -0.0323531991       -1.5214373307       -1.6058370003
 C          0.8091172909       -1.2039948409       -2.6555975803
 C          2.1602563509       -0.9941084108       -2.4377241803
 C          2.6727610109       -1.1183660905       -1.1521395102
 N          4.0413801508       -0.9217486104       -0.9024770702
 S          4.5319269508        0.0509555298        0.3701798196
 O          5.9438327408        0.2589667798        0.1350409697
 O          4.1808560307       -0.5645028999        1.6232352997
 C          3.6535249407        1.5840933298        0.1295097993
 C          4.2504988908        2.5493685196       -0.6599198309
 C          3.5676982408        3.7259660295       -0.9179527712
 C          2.2973155307        3.9142770696       -0.3934150313
 C          1.7127349207        2.9356873198        0.3943892489
 C          2.3924552407        1.7570686199        0.6626614192
 H          1.9429172407        0.9951276700        1.2798435493
 H          0.7260370707        3.0677282899        0.8107512988
 H          1.7610142407        4.8280755896       -0.5957517715
 H          4.0239174808        4.4902400794       -1.5262691613
 H          5.2424324008        2.3648215496       -1.0398038408
 H          4.5834843409       -0.7108196106       -1.7284952102
 H          2.8145237610       -0.7382415510       -3.2571986003
 H          0.4085347710       -1.1100355611       -3.6536401603
 H         -1.0875827091       -1.6770718607       -1.7733799803
 C         -0.4314059392       -1.9796315701        0.8462855298
 H          0.1456708407       -1.7988547499        1.7681430898
 C         -0.8751061792       -3.4353435602        0.8759798901
 C         -0.7070769991       -4.3790568304       -0.2727664097
 C          0.1597300308       -4.5199098801        0.9398935104
 H         -0.0036344392       -5.3545300200        1.6048431705
 H          1.1943931508       -4.2209927801        0.8536038304
 H         -0.2559938591       -4.0089590906       -1.1796020698
 H         -1.4898779691       -5.1027945404       -0.4404701996
 H         -1.7618325092       -3.5758765400        1.4851916401
 O         -3.0916963892       -2.2128265305       -0.4554504803
