  62
        -98.93762881
 C          2.6320459716        1.1199429064        0.2150045889
 C          2.7308699629        0.2601804640       -0.9045190260
 C          3.5421318846       -0.9557007504       -0.7196150660
 C          4.1347329074       -1.1822876700        0.4652117362
 C          5.0285415723       -2.3315159547        0.8590258099
 C          4.5956020575       -3.7410052334        0.4299337401
 C          3.0775529357       -3.9619291749        0.3553445600
 H          2.8231499011       -4.8644094499        0.9145393286
 H          2.5533782351       -3.1292026340        0.8281973905
 C          2.5689473700       -4.1390464206       -1.0776833060
 H          3.2602807278       -4.7925639343       -1.6141093730
 H          1.6003100722       -4.6436493817       -1.0458688665
 C          2.3806616954       -2.8485890541       -1.8749567022
 H          1.5246375427       -2.2907546444       -1.4846621488
 H          2.1393145035       -3.1223882495       -2.9046751777
 C          3.5876520176       -1.8963946730       -1.8890210635
 H          4.5246590722       -2.4463839756       -1.9283336650
 H          3.5102180061       -1.2710480342       -2.7823761213
 H          5.0347744808       -3.9777545605       -0.5381252482
 H          5.0291512361       -4.4369259733        1.1501086339
 H          6.0313085387       -2.1315115764        0.4709112056
 H          5.0899219820       -2.2828738491        1.9488916855
 O          4.0106288539       -0.3242226277        1.5187061523
 C          3.2521934006        0.8307277950        1.4278171170
 O          3.2032913382        1.5002080743        2.4811376750
 H          0.3366844058        0.3757768209        1.0909450732
 C         -0.2325899681        0.9559260057        0.3732602413
 C          0.3717144696        2.0431870496       -0.2460733269
 C         -0.3783979639        2.7892541101       -1.1455736935
 C         -1.6866969457        2.4368970184       -1.4296554569
 C         -2.2745308378        1.3395515003       -0.8286235995
 C         -1.5388688865        0.5942758624        0.0836358743
 N         -2.1248315813       -0.5296423307        0.6954068728
 S         -3.5914758214       -0.3104335353        1.4876031223
 O         -3.7275188950        1.0417122205        1.9781669645
 O         -3.6465141898       -1.3635322149        2.4782529272
 C         -4.8113194515       -0.6304840514        0.2312442630
 C         -5.7453376618        0.3369672822       -0.0836028568
 C         -6.6901714272        0.0628251463       -1.0603454879
 C         -6.6844891772       -1.1671891940       -1.7001563677
 C         -5.7412235656       -2.1290904300       -1.3700638502
 C         -4.7944691432       -1.8617907643       -0.3941923461
 H         -4.0473030726       -2.5821820002       -0.1054875902
 H         -5.7399518747       -3.0845335440       -1.8695548849
 H         -7.4197387311       -1.3779160990       -2.4606066148
 H         -7.4245069180        0.8088805362       -1.3182273677
 H         -5.7076897754        1.2801520393        0.4377450708
 H         -1.4867850029       -1.0442735125        1.2852580341
 H         -3.2890578897        1.0558124864       -1.0557857443
 H         -2.2551649709        3.0232204240       -2.1352215039
 H          0.0629962525        3.6458041905       -1.6278942184
 C          1.7967631280        2.3827524251        0.1225978675
 H          1.7892921658        2.8187113864        1.1332416980
 C          2.4459781418        3.3679223944       -0.8280065993
 C          2.2977789062        4.8430146968       -0.6106966815
 C          3.6118225992        4.1744549973       -0.3434417988
 H          4.4325798113        4.3547537853       -1.0212318636
 H          3.9173677438        4.0339240837        0.6836096547
 H          2.2196605617        5.4864528062       -1.4740954684
 H          1.7146427925        5.1684567650        0.2377072611
 H          2.4810123878        2.9984882025       -1.8463478303
 O          2.1736325746        0.4943390017       -2.0071295400
