  62
        -98.94651719
 C          1.1851015091        1.1345420400        0.5574094000
 C          1.6835093694        0.6724898403       -0.6849960700
 C          2.4789956194       -0.5641032897       -0.6306086901
 C          2.5928073891       -1.2269597000        0.5338919897
 C          3.4206536991       -2.4611338601        0.7432272696
 C          4.8429613589       -2.1008527802        1.1953638600
 C          5.5139741992       -1.0357945500        0.3277672905
 H          4.9822329291       -0.0893580100        0.4496264406
 H          6.5237548591       -0.8883674401        0.7169426408
 C          5.5875124195       -1.3863399695       -1.1651547796
 H          6.5888265796       -1.1493092095       -1.5309195593
 H          5.4396440396       -2.4580621695       -1.3025348299
 C          4.5993623898       -0.6198455693       -2.0466198996
 H          4.8832142500       -0.7772895990       -3.0906103596
 H          4.6834365997        0.4506694907       -1.8432788593
 C          3.1258940097       -1.0237991293       -1.9068679501
 H          3.0306184797       -2.1048019893       -2.0258588004
 H          2.5723896699       -0.5372868791       -2.7153420401
 H          5.4474483189       -3.0097317902        1.1911866799
 H          4.7976437787       -1.7280640805        2.2212475801
 H          2.9467985189       -3.0680440103        1.5162517393
 H          3.4628681993       -3.0310759098       -0.1828703306
 O          1.9930341188       -0.8154919403        1.6799657197
 C          1.2968442088        0.3779975297        1.7251738799
 O          0.8185430786        0.6516010093        2.8461228898
 O          1.4921463397        1.2570138707       -1.7816080899
 C          0.4255767491        2.4490044100        0.6597225202
 C         -0.9378976207        2.2594600802        0.0422443198
 C         -1.3339933904        2.8307711005       -1.1587195401
 C         -2.5884023903        2.5607464407       -1.6816265405
 C         -3.4707857905        1.7261248405       -1.0199842509
 C         -3.0812158908        1.1508030501        0.1832970790
 C         -1.8258771909        1.4181209300        0.7036056894
 H         -1.5181846011        0.9630755397        1.6369804193
 N         -3.9694109010        0.2805162899        0.8585055685
 S         -4.2413840108       -1.1876433998        0.1005523780
 O         -4.8948151905       -0.9425196295       -1.1589661921
 O         -4.9665468910       -1.9947098901        1.0544600776
 C         -2.6188178107       -1.8759943798       -0.1739670918
 C         -2.1191387809       -2.7875485300        0.7340889981
 C         -0.8429799709       -3.2919942300        0.5441934183
 C         -0.0877651206       -2.8655160197       -0.5368400814
 C         -0.5968245304       -1.9363181794       -1.4306431713
 C         -1.8760353504       -1.4360510995       -1.2518186414
 H         -2.3048507903       -0.7203633093       -1.9341680913
 H          0.0003082698       -1.5916545692       -2.2596509010
 H          0.9050289894       -3.2586727396       -0.6845019113
 H         -0.4400310011       -4.0108986202        1.2394555882
 H         -2.7417775312       -3.0939501203        1.5595953379
 H         -3.6880868412        0.1031603597        1.8133868785
 H         -4.4430713504        1.4934017806       -1.4227757712
 H         -2.8826651001        3.0077446509       -2.6190790304
 H         -0.6563423603        3.4750361406       -1.6935317798
 H          0.2795974388        2.6263683597        1.7345483402
 C          1.2133999893        3.6033843801        0.0804616807
 C          0.8395959192        5.0059741800        0.4515905711
 C          2.1044014790        4.4020277999        0.9817415012
 H          3.0478736791        4.7550793900        0.5931615115
 H          2.1401797988        4.1242831896        2.0254142811
 H          0.9147341194        5.7769504102       -0.2998795087
 H          0.0148901690        5.1378625498        1.1357954509
 H          1.5645518495        3.4193751004       -0.9269481692
