  62
        -98.94089073
 C          1.2141180175        1.3210641236        0.0453072476
 C          2.0595832781        0.8601072624        1.0781114039
 C          2.7870963098       -0.3965076597        0.8246494511
 C          2.5969574550       -1.0443585625       -0.3402927045
 C          3.1704453294       -2.3451460963       -0.8630827218
 C          4.3465448989       -3.0206032801       -0.1628995256
 C          5.6721275890       -2.2671508430       -0.2717003959
 H          6.4085492339       -2.7759549447        0.3541103918
 H          6.0196611849       -2.3245101759       -1.3062963023
 C          5.6256719410       -0.7911764230        0.1153055959
 H          6.6267126154       -0.3756413530       -0.0291439637
 H          4.9550436464       -0.2551996427       -0.5592461139
 C          5.2097583157       -0.5066065439        1.5569158136
 H          5.8558098235       -1.0586487935        2.2425047301
 H          5.3637700541        0.5604152113        1.7399485081
 C          3.7447936688       -0.8279850709        1.8981614111
 H          3.4761080060       -0.2607576937        2.7944766821
 H          3.6159764053       -1.8823739426        2.1306489357
 H          4.1036055413       -3.2188158377        0.8768339909
 H          4.4809489152       -3.9922049181       -0.6461301189
 H          2.3320031841       -3.0485167808       -0.8854557146
 H          3.4406440994       -2.1529688324       -1.9061505724
 O          1.7346280319       -0.5795277565       -1.2908710952
 C          1.0322188359        0.6030683844       -1.1357872518
 O          0.2991333069        0.8969264126       -2.0960469834
 O          2.1951364055        1.4658935232        2.1767292109
 C          0.4431473564        2.6146195301        0.2360143345
 C         -1.0363754689        2.3340599444        0.1508390964
 C         -1.9105536896        3.0397290618       -0.6640985884
 C         -3.2521131292        2.6990041942       -0.7158383306
 C         -3.7517965515        1.6588710709        0.0455609724
 C         -2.8866083772        0.9539374369        0.8730978460
 C         -1.5451565874        1.2955097281        0.9224564717
 H         -0.8728324550        0.7404531692        1.5656372069
 N         -3.3844576306       -0.1130122777        1.6542239128
 S         -3.9716137650       -1.4376059819        0.8127545149
 O         -5.1404988579       -1.0371257176        0.0729398087
 O         -4.1648352319       -2.4688069409        1.8069388312
 C         -2.6638864166       -1.9047610337       -0.3051746576
 C         -2.5531148623       -1.2637179236       -1.5227156569
 C         -1.5065753683       -1.6027527107       -2.3648005354
 C         -0.5940047929       -2.5709764628       -1.9763937567
 C         -0.7174947710       -3.2031952009       -0.7486991938
 C         -1.7580928539       -2.8643168394        0.1002843360
 H         -1.8933207369       -3.3361034257        1.0606495456
 H         -0.0085551999       -3.9588460173       -0.4480687179
 H          0.2210662535       -2.8253856717       -2.6354627058
 H         -1.3948669098       -1.0976774294       -3.3099857214
 H         -3.2817239253       -0.5174821966       -1.7944534489
 H         -2.7203993434       -0.4352980159        2.3447982449
 H         -4.7890425591        1.3689593001        0.0013316680
 H         -3.9181988672        3.2516504030       -1.3609707132
 H         -1.5416902435        3.8513383928       -1.2690562613
 H          0.6719886352        2.9464332439        1.2596415692
 C          0.9224371288        3.6701328099       -0.7374136379
 C          0.7970825170        5.1238704565       -0.3950875604
 C          2.1442083552        4.4677945594       -0.3971586048
 H          2.8378363682        4.7121603000       -1.1876798355
 H          2.6190802520        4.2678226628        0.5524035208
 H          0.5677557196        5.8226797519       -1.1853143464
 H          0.3584403899        5.3770874709        0.5582403063
 H          0.7918959446        3.3728836641       -1.7717742804
