  62
        -98.94235721
 C          0.4920375244        1.6700873247        0.2507203154
 C          1.2808171272        0.7630010070        0.9889450393
 C          2.3430556354        0.0471067823        0.2567995498
 C          2.4578663322        0.2444038133       -1.0701609079
 C          3.4301606750       -0.3845989624       -2.0357171649
 C          4.8497127306        0.1883303882       -1.9308200946
 C          5.3929812247        0.2763580609       -0.5081495760
 H          6.3823020386        0.7382577390       -0.5596336665
 H          4.7537235693        0.9406823986        0.0749398741
 C          5.5364447802       -1.0616028523        0.2145714649
 H          6.1432484472       -1.7350026190       -0.3942139413
 H          6.0831999514       -0.8688468828        1.1408670019
 C          4.2281218687       -1.7698017304        0.5826587142
 H          4.4654045475       -2.5066344695        1.3552043770
 H          3.8223901167       -2.3253707909       -0.2595179430
 C          3.1587553557       -0.8480352209        1.1583810486
 H          2.4225941793       -1.4470647895        1.7045812060
 H          3.6126697536       -0.1973007675        1.9150793898
 H          5.5125643287       -0.4283907090       -2.5408123992
 H          4.8422761830        1.1958680847       -2.3540048988
 H          3.4425021803       -1.4630786984       -1.9056058787
 H          3.0420484218       -0.1804383090       -3.0366316034
 O          1.6574295219        1.1176735272       -1.7470694340
 C          0.6603147024        1.8396673810       -1.1232366597
 O          0.0132763678        2.5917542592       -1.8783574668
 O          1.1071764451        0.5473721960        2.2204168500
 C         -0.6459725595        2.3955846887        0.9459277453
 C         -1.9467489701        1.9819945251        0.3032418596
 C         -2.9489796562        2.8707807597       -0.0612822248
 C         -4.0872069358        2.4135438491       -0.7037387406
 C         -4.2404511953        1.0744874703       -1.0115581731
 C         -3.2491123744        0.1750522042       -0.6345382307
 C         -2.1340449048        0.6291864292        0.0471795305
 H         -1.3678578721       -0.0749078044        0.3394817049
 N         -3.3612228728       -1.1943191728       -0.9165229806
 S         -1.9869436115       -2.0994878777       -1.2164338349
 O         -0.9543973319       -1.3409121054       -1.8834894723
 O         -2.4773329547       -3.2595396919       -1.9341473475
 C         -1.4370917831       -2.6360100688        0.3895438698
 C         -0.0912989480       -2.8776659209        0.5793378390
 C          0.3348499965       -3.3794348087        1.7988201509
 C         -0.5856855964       -3.6170714653        2.8071522019
 C         -1.9327446565       -3.3609296679        2.6035539481
 C         -2.3677993853       -2.8745858519        1.3811812422
 H         -3.4072718663       -2.6694439461        1.1870960552
 H         -2.6456642523       -3.5419920546        3.3918051914
 H         -0.2488151666       -4.0020416595        3.7566242277
 H          1.3819016747       -3.5844869267        1.9564527859
 H          0.5942415678       -2.6567630683       -0.2245482573
 H         -4.1273604000       -1.4515416013       -1.5214236477
 H         -5.1121504964        0.7256457497       -1.5437569516
 H         -4.8566778853        3.1147519339       -0.9892670575
 H         -2.8328826620        3.9228199716        0.1411072679
 H         -0.6370525248        2.0297408215        1.9836597229
 C         -0.4175302342        3.8917058443        0.9503391593
 C         -0.9911223902        4.7396870841        2.0453463501
 C          0.4839649136        4.4833989839        1.9908470739
 H          1.1402743669        5.2914774092        1.7047089966
 H          0.9142321918        3.8068587034        2.7146850418
 H         -1.3469706026        5.7285951921        1.7986707270
 H         -1.5626039170        4.2426807112        2.8143629736
 H         -0.3681962533        4.3063073365       -0.0504115836
