  62
        -98.93935784
 C          1.5719289101        1.3864114023        0.4060379054
 C          1.5678395507        0.3469659996       -0.5533793032
 C          2.4407802908       -0.8078733537       -0.2691380952
 C          3.1547403435       -0.8381707762        0.8688405523
 C          4.0569100347       -1.9310451901        1.3851898391
 C          5.0034128242       -2.6042734701        0.3819682930
 C          5.5271655917       -1.6862700654       -0.7320126452
 H          6.6139477670       -1.7749224488       -0.7829404286
 H          5.2967068721       -0.6451413087       -0.4994207418
 C          4.9637721013       -2.0383548823       -2.1109787674
 H          4.9758198708       -3.1242751076       -2.2280112861
 H          5.6225911023       -1.6208518960       -2.8763102015
 C          3.5546709543       -1.5204499238       -2.3963190046
 H          3.2343106014       -1.9306770020       -3.3571906639
 H          3.5757009928       -0.4325135723       -2.5042777089
 C          2.4955492705       -1.8647746111       -1.3358939070
 H          2.6664110637       -2.8545661988       -0.9191229265
 H          1.5177146664       -1.8576456172       -1.8255916114
 H          4.5082425427       -3.4628527156       -0.0695932363
 H          5.8447917846       -2.9950959692        0.9566366953
 H          3.4317044432       -2.6963642494        1.8542169001
 H          4.6413569061       -1.4626832441        2.1806373885
 O          3.1143532883        0.1784856529        1.7750665442
 C          2.3390221021        1.3036046529        1.5714725567
 O          2.4157685640        2.1503240285        2.4828140123
 O          0.8723660412        0.3545292578       -1.6031679523
 C          0.7067557061        2.6302132597        0.2573746442
 C         -0.7254694778        2.2131981056        0.4842382971
 C         -1.2503656204        2.2083501884        1.7732424216
 C         -2.5249047320        1.7290146602        2.0156148768
 C         -3.2907167182        1.2147018192        0.9834425888
 C         -2.7667500463        1.2016067292       -0.3020825703
 C         -1.5069225251        1.7264580686       -0.5520169923
 H         -1.1117170243        1.6989773064       -1.5546357825
 N         -3.5007494678        0.6022663811       -1.3433523633
 S         -4.0969251250       -0.9287775496       -1.0140803049
 O         -4.0729429504       -1.6366120810       -2.2755237048
 O         -5.3956521207       -0.8079823742       -0.3971042527
 C         -2.9634520980       -1.6744610849        0.1511206235
 C         -1.6110207044       -1.6891770212       -0.1283497629
 C         -0.7452604702       -2.2591677682        0.7913220847
 C         -1.2404250084       -2.8096365353        1.9630327278
 C         -2.6014478478       -2.7955433089        2.2246354567
 C         -3.4714511714       -2.2198470312        1.3131866343
 H         -4.5352097435       -2.1751830029        1.4818096557
 H         -2.9848933479       -3.2241241798        3.1365006129
 H         -0.5592796145       -3.2482001691        2.6751996574
 H          0.3147060376       -2.2551957399        0.5893917397
 H         -1.2329340160       -1.2484227777       -1.0376922564
 H         -3.0065582764        0.6041997216       -2.2247902445
 H         -4.2762603586        0.8121697857        1.1548679949
 H         -2.9212865854        1.7404650380        3.0193460708
 H         -0.6376591177        2.5688470038        2.5874568526
 H          1.0017953862        3.3000815825        1.0751852939
 C          0.9350669512        3.3422170944       -1.0595929960
 C          0.4219092219        4.7396122755       -1.2293060089
 C          1.8950552838        4.4908277868       -1.1131499168
 H          2.5096598201        4.6078959932       -1.9932859323
 H          2.3905930672        4.7727666304       -0.1954626438
 H          0.0229760861        5.0308955718       -2.1889140211
 H         -0.0839907844        5.1892918229       -0.3882807848
 H          0.9079444315        2.6863943843       -1.9201632125
