  62
        -98.93312440
 C         -1.7587696881       -1.1258159974        0.4968798634
 C         -2.0230617795        0.1732459575        0.9980233434
 C         -3.4184495201        0.6434371092        0.9510024993
 C         -4.3687762748       -0.1699186491        0.4542855436
 C         -5.8661283895        0.0093716675        0.3125804924
 C         -6.5082026928        1.3817809016        0.4948650718
 C         -6.1671964764        2.3957593361       -0.5970983213
 H         -6.6601467733        2.0872910510       -1.5224580613
 H         -6.5805530378        3.3641484828       -0.3071635763
 C         -4.6807653578        2.5620796496       -0.9036101646
 H         -4.5847817016        3.2928450992       -1.7114457176
 H         -4.2734231199        1.6194075435       -1.2751125621
 C         -3.8219208321        3.0465036663        0.2628582459
 H         -4.2319614138        3.9773575988        0.6599332743
 H         -2.8236950535        3.2618128672       -0.1296383022
 C         -3.6574073191        2.0490662967        1.4219829216
 H         -2.7675180362        2.3368480549        1.9896354200
 H         -4.5055552826        2.0898765951        2.1013375450
 H         -7.5900870799        1.2253361614        0.4718175438
 H         -6.2693169342        1.7812994304        1.4760179377
 H         -6.1196774979       -0.3754746555       -0.6803676259
 H         -6.3157909723       -0.6820650515        1.0336553012
 O         -4.0722512452       -1.4233074020        0.0065218856
 C         -2.7800509155       -1.9319037332       -0.0039850043
 O         -2.7040876705       -3.0826113822       -0.4701117120
 O         -1.1247789759        0.9110005612        1.4872058922
 C         -0.3146860115       -1.5914455034        0.5367954135
 C          0.3810833595       -1.3056333394       -0.7698993126
 C         -0.1402149509       -1.7467105908       -1.9828634959
 C          0.5200242086       -1.4740059071       -3.1667503946
 C          1.6994018560       -0.7494133720       -3.1674542436
 C          2.2258118072       -0.2984973851       -1.9630783770
 C          1.5682599538       -0.5882204537       -0.7749322830
 H          1.9751943316       -0.2276094719        0.1564417673
 N          3.4315467009        0.4160028712       -1.9271932032
 S          3.6056943735        1.7247411245       -0.8920032926
 O          2.3590054395        2.4293295669       -0.7121564083
 O          4.6944489321        2.4864204743       -1.4670542170
 C          4.1578873100        0.9988986256        0.6361371766
 C          3.4241866383        1.1795760737        1.7918812754
 C          3.8786013164        0.6043895350        2.9687579661
 C          5.0515341802       -0.1348988917        2.9686086029
 C          5.7782511157       -0.3037317116        1.7993737711
 C          5.3299477816        0.2682795340        0.6198546313
 H          5.8667637279        0.1658748065       -0.3083579036
 H          6.6894992154       -0.8797011642        1.8044475566
 H          5.3994560569       -0.5821120693        3.8863634641
 H          3.3108140020        0.7331498972        3.8765040192
 H          2.5089387336        1.7507173675        1.7479200982
 H          3.8362285513        0.6060778857       -2.8326197402
 H          2.2080692390       -0.5315141453       -4.0944184942
 H          0.1078260369       -1.8234376631       -4.1016119470
 H         -1.0629135164       -2.3069045063       -1.9851632943
 H          0.1570534385       -0.9547964400        1.3023323471
 C         -0.1577626917       -3.0358294092        0.9934176338
 C          0.3435472426       -4.1378978332        0.1140433051
 C          1.2159205022       -3.6008262877        1.2061583663
 H          1.3962190147       -4.2119855776        2.0772403850
 H          2.0527623356       -2.9826042638        0.9164217295
 H         -0.1042891739       -5.1124212446        0.2346751202
 H          0.6005561110       -3.9027919361       -0.9063717290
 H         -0.9158645164       -3.3123442201        1.7191239472
