  62
        -98.94331703
 C         -2.6062315551       -0.1353480013       -0.1265908314
 C         -2.3179782444       -1.1803784802       -1.0354716563
 C         -1.8853881194       -2.4516680905       -0.4437262985
 C         -1.7683367705       -2.5476567292        0.8932166986
 C         -1.3379295187       -3.7837316427        1.6287180513
 C          0.1757251370       -3.8083244804        1.8765998967
 C          1.0180008696       -3.5206751762        0.6337370562
 H          0.8788774366       -2.4748740268        0.3494563698
 H          2.0650535372       -3.6309638961        0.9272609319
 C          0.7259892658       -4.4329757386       -0.5657233116
 H          1.6764954271       -4.7358607925       -1.0102190746
 H          0.2233137726       -5.3398816608       -0.2271975311
 C         -0.0970818728       -3.7819330249       -1.6791291663
 H         -0.0213685164       -4.4104045913       -2.5706723889
 H          0.3321457114       -2.8070369774       -1.9253521384
 C         -1.5895215125       -3.5876150260       -1.3822693150
 H         -2.0155469642       -4.5204217399       -1.0072160819
 H         -2.0878142158       -3.3355320918       -2.3230716509
 H          0.4396584624       -4.7878747634        2.2813208697
 H          0.4171420146       -3.0512223755        2.6267143740
 H         -1.8521934100       -3.8013391150        2.5915508149
 H         -1.6353934874       -4.6591553546        1.0538361560
 O         -2.0236782891       -1.5134621671        1.7342715177
 C         -2.4103883670       -0.2746206983        1.2478382387
 O         -2.5651420451        0.5955535686        2.1266023870
 O         -2.4215273940       -1.0548056770       -2.2874619775
 C         -3.0129619459        1.2229607080       -0.6774167602
 C         -1.8866099277        2.1851798248       -0.3921241342
 C         -2.0232031796        3.3745952243        0.3099589044
 C         -0.9088783592        4.1349612346        0.6263643829
 C          0.3605210274        3.7238346270        0.2611405967
 C          0.4997357940        2.5532118347       -0.4692218055
 C         -0.6146568982        1.8068814612       -0.8042991372
 H         -0.4925438971        0.8821835918       -1.3554487982
 N          1.8070202904        2.0721496948       -0.7849016332
 S          2.2818317335        1.0189330289        0.4621763915
 O          1.4590253633       -0.1713868432        0.4484925948
 O          2.3043068813        1.7758494984        1.6879365729
 C          3.9475642731        0.6149882244       -0.0303994659
 C          4.2311378706       -0.6407741634       -0.5304518539
 C          5.5265208450       -0.9233416903       -0.9359079893
 C          6.5077975045        0.0512666578       -0.8390049750
 C          6.2064969166        1.3084599366       -0.3357330827
 C          4.9144027741        1.5967150057        0.0727555569
 H          4.6330144317        2.5551363350        0.4758792501
 H          6.9728254915        2.0629602022       -0.2611806226
 H          7.5143760281       -0.1711370482       -1.1561982989
 H          5.7627926384       -1.9004908286       -1.3254596610
 H          3.4364103559       -1.3682491446       -0.5831062832
 H          1.7814785627        1.5165133348       -1.6327660335
 H          1.2386499276        4.2798068820        0.5452109620
 H         -1.0311236017        5.0490964493        1.1872936956
 H         -3.0000857448        3.6945007900        0.6341396099
 H         -3.0862509170        1.0868328101       -1.7665564926
 C         -4.3564717859        1.6670164496       -0.1449277952
 C         -5.1752476565        2.6555091682       -0.9190926402
 C         -5.6015082255        1.2208831295       -0.8492394328
 H         -6.4653561989        0.9658454489       -0.2542086626
 H         -5.4811956157        0.6065084849       -1.7295507996
 H         -5.7507142682        3.3876211520       -0.3734217056
 H         -4.7683569415        3.0184011344       -1.8507045963
 H         -4.3825075939        1.7126956694        0.9376225563
