  62
        -98.94569471
 C         -1.5314012231       -1.3127169694       -0.7032764596
 C         -2.8209505630       -1.1393204935       -0.1350859915
 C         -3.5455302248        0.0768434683       -0.5130118585
 C         -2.9832114926        0.9437060881       -1.3740823684
 C         -3.5924765072        2.2296925256       -1.8624585668
 C         -3.3772106173        3.4126182225       -0.9085490216
 C         -4.2163790615        3.3759053801        0.3694474458
 H         -4.1385282887        4.3620376801        0.8316683698
 H         -5.2641710389        3.2178198058        0.1112374280
 C         -3.7697597570        2.3186551097        1.3892810251
 H         -2.7522083009        1.9930363129        1.1558437542
 H         -3.7364979281        2.7660429927        2.3856185366
 C         -4.6805657123        1.0932165334        1.4742743491
 H         -4.2467367776        0.3960625838        2.1958380994
 H         -5.6636586595        1.3937771250        1.8437569024
 C         -4.8640684063        0.3469134454        0.1465387298
 H         -5.5131642789        0.9158501919       -0.5187577569
 H         -5.3340159064       -0.6168503951        0.3575404129
 H         -2.3170152053        3.4607005425       -0.6458958605
 H         -3.6267829514        4.3246006893       -1.4561508332
 H         -3.1099771988        2.4622485316       -2.8141967786
 H         -4.6596387966        2.0893500800       -2.0372069735
 O         -1.7648101996        0.7268351010       -1.9285685660
 C         -0.9918933985       -0.3732975876       -1.5817727208
 O          0.1187211976       -0.3874641585       -2.1483683022
 O         -3.3452766352       -1.9736444830        0.6515155223
 C         -0.7576470426       -2.5353197924       -0.2368010882
 C          0.0413330391       -2.1752242796        0.9947162004
 C         -0.1668340878       -2.8372327303        2.1981297970
 C          0.5265628971       -2.4598967542        3.3346310527
 C          1.4181278358       -1.4045778395        3.2941239381
 C          1.6360928783       -0.7355247761        2.0927027543
 C          0.9700159872       -1.1440439589        0.9474128843
 H          1.1368584184       -0.6220217201        0.0205062791
 N          2.5362129282        0.3346866861        2.0383051365
 S          2.3671000649        1.6417595336        1.0008767799
 O          2.9074394842        2.7570170738        1.7537981875
 O          1.0097581705        1.7916290017        0.5355060154
 C          3.5059060820        1.2596406960       -0.3138382223
 C          3.0661463815        0.8044578945       -1.5392152672
 C          4.0067711664        0.5005125073       -2.5132928574
 C          5.3580429200        0.6559057449       -2.2496710545
 C          5.7832260006        1.1181333748       -1.0127381372
 C          4.8507944917        1.4223769945       -0.0359146161
 H          5.1350915853        1.7979917462        0.9329601299
 H          6.8347280336        1.2413487069       -0.8091362441
 H          6.0821773438        0.4170565278       -3.0127128143
 H          3.6689208026        0.1411826748       -3.4724084587
 H          2.0099145641        0.6837406471       -1.7271972289
 H          2.9100203979        0.6190856283        2.9314305864
 H          1.9398493919       -1.0912725781        4.1857607576
 H          0.3565042229       -2.9792982282        4.2655615031
 H         -0.8940914444       -3.6342134634        2.2448811063
 H         -1.5232652999       -3.2628287769        0.0671591823
 C          0.1192875944       -3.1776257344       -1.2909057330
 C          0.4849057165       -4.6235253848       -1.1450173602
 C         -0.4731521984       -4.1966075631       -2.2155436887
 H         -0.1441730681       -4.2097703861       -3.2435391144
 H         -1.5191102345       -4.4364908929       -2.0900587758
 H          1.4762743339       -4.9341267240       -1.4363781712
 H          0.0879927304       -5.1576571636       -0.2950749051
 H          0.8633320666       -2.5088758469       -1.7019295707
