  62
        -98.94311346
 C          2.5584631498        0.1881738493        0.5311972640
 C          2.2030495938       -0.3523260542       -0.7301751858
 C          1.9973426481       -1.8087172473       -0.7705168854
 C          2.1111061156       -2.5260702351        0.3605527304
 C          1.9013986827       -4.0086251991        0.4683432942
 C          0.4497969396       -4.3503885208        0.8283313787
 C         -0.5900660373       -3.6575340394       -0.0527539024
 H         -0.5804053157       -2.5825416770        0.1457400892
 H         -1.5718792488       -4.0250346794        0.2559138637
 C         -0.4066854587       -3.8898854636       -1.5590131628
 H         -1.3831818311       -4.1033323712       -1.9984264667
 H          0.2246608637       -4.7637703692       -1.7276594870
 C          0.1673448297       -2.6879606325       -2.3121125634
 H         -0.3824422403       -1.7880145973       -2.0259305429
 H          0.0125699122       -2.8483955104       -3.3827864889
 C          1.6633908542       -2.4220666888       -2.1010018300
 H          1.9804808294       -1.6941382884       -2.8536449615
 H          2.2293484714       -3.3443626553       -2.2531588170
 H          0.2698601453       -4.0536818415        1.8645472541
 H          0.3251122331       -5.4329367558        0.7569615440
 H          2.1713619405       -4.4755204814       -0.4770612125
 H          2.5585231171       -4.3893298545        1.2526332659
 O          2.4111254430       -1.9676237290        1.5626522874
 C          2.6170683962       -0.6032878546        1.6795227164
 O          2.8493099230       -0.2209447629        2.8458050115
 H          0.1914235707        1.2352998321        1.1333680149
 C          0.3307398188        2.0299356502        0.4128535704
 C          1.6191603501        2.4213287812        0.0701673560
 C          1.7785118247        3.4468923379       -0.8513694973
 C          0.6699814339        4.0427159664       -1.4286947819
 C         -0.6087449684        3.6203571243       -1.1168394243
 C         -0.7779118015        2.5992182295       -0.1879128253
 N         -2.0608710867        2.1403738267        0.1670984135
 S         -2.2193247675        0.4817440217        0.4586402798
 O         -1.8512705967        0.2144257418        1.8283663768
 O         -1.5241163946       -0.2745039063       -0.5551092088
 C         -3.9824902361        0.2890036494        0.2741413415
 C         -4.4902053736       -0.3105490060       -0.8623063813
 C         -5.8647361543       -0.4267387750       -1.0014024941
 C         -6.7024590444        0.0588788359       -0.0089498812
 C         -6.1775616952        0.6572326239        1.1273227952
 C         -4.8046972142        0.7747237649        1.2736452927
 H         -4.3500428948        1.2221541551        2.1420798631
 H         -6.8318241146        1.0308077930        1.8983374873
 H         -7.7713524868       -0.0318805473       -0.1200638249
 H         -6.2749905541       -0.8947092489       -1.8816634681
 H         -3.7985459587       -0.6768379559       -1.6040197943
 H         -2.7773254132        2.4671281711       -0.4678602506
 H         -1.4689931891        4.0697847316       -1.5893878666
 H          0.8060106728        4.8345370591       -2.1498298664
 H          2.7681268831        3.7603872305       -1.1404669709
 C          2.7571483365        1.6824470726        0.7310856796
 H          2.6616271502        1.8334941031        1.8202017134
 C          4.1336697771        2.2004260788        0.3431003681
 C          5.3274903599        1.2938423793        0.3441322606
 C          4.7970604092        1.8327481288       -0.9486842184
 H          5.3736551425        2.5896929244       -1.4601404778
 H          4.2655248747        1.1655221080       -1.6078025534
 H          5.1611080041        0.2505685198        0.5716628941
 H          6.2630083284        1.6793939242        0.7209055116
 H          4.3013063990        3.2095996553        0.7070887125
 O          2.0810284793        0.3316981420       -1.7790194089
