  62
        -98.93869713
 C          2.5726047988        1.3744214510        0.1459202168
 C          2.5375592551        0.3133334445       -0.7879746064
 C          3.5704924010       -0.7299154306       -0.6387110753
 C          4.4748896463       -0.6338964962        0.3533814369
 C          5.6546704238       -1.5103804193        0.7192359927
 C          5.8020921085       -2.9099362574        0.1283345500
 C          4.7455674502       -3.9135766287        0.5898088259
 H          4.8822244108       -4.8384339409        0.0253170196
 H          4.9184571644       -4.1391724508        1.6450503819
 C          3.2949830042       -3.4574496176        0.4510281070
 H          2.6530872119       -4.2596487542        0.8254489749
 H          3.1197685441       -2.5865898248        1.0863246103
 C          2.8428444353       -3.1311033967       -0.9710510404
 H          1.7608509516       -2.9693300362       -0.9428174213
 H          3.0346963901       -3.9855125528       -1.6234131935
 C          3.4829112787       -1.8809989858       -1.5988898558
 H          4.4588575104       -2.1064571722       -2.0219254437
 H          2.8381317321       -1.5496523397       -2.4182812866
 H          5.8325909016       -2.8598662611       -0.9560364323
 H          6.7760371221       -3.2842023868        0.4551430265
 H          6.5465223033       -0.9296952197        0.4590102264
 H          5.6429128723       -1.5827930347        1.8113457573
 O          4.4699528785        0.4139650524        1.2288570421
 C          3.5244475093        1.4190536311        1.1654760676
 O          3.6367097720        2.2855784617        2.0550724949
 H         -0.4934648701        1.6343394066       -1.5166880638
 C         -0.7120264402        1.4901067567       -0.4707695308
 C          0.2040367604        1.8931968495        0.4871618005
 C         -0.0894263905        1.6643307542        1.8289340467
 C         -1.2724385719        1.0526436120        2.1975691301
 C         -2.1829332402        0.6455994038        1.2370551823
 C         -1.8904695849        0.8524525314       -0.1035428000
 N         -2.8004384268        0.4333444027       -1.0885316876
 S         -3.4754831858       -1.0971827164       -0.9571696545
 O         -2.6083914590       -2.0138712258       -0.2536320639
 O         -3.8426556195       -1.4652781700       -2.3074432390
 C         -4.9622481986       -0.8143621673       -0.0166211666
 C         -5.8283522860        0.1708120063       -0.4493121309
 C         -6.9944866758        0.3974018329        0.2638910006
 C         -7.2756279453       -0.3625351269        1.3896131372
 C         -6.3980633646       -1.3503545146        1.8091162396
 C         -5.2291038115       -1.5813341053        1.1003884749
 H         -4.5147055124       -2.3345917938        1.3929321186
 H         -6.6180002160       -1.9406656026        2.6841621268
 H         -8.1838386118       -0.1839123317        1.9432970930
 H         -7.6792051313        1.1649489037       -0.0590769482
 H         -5.5742720525        0.7373596727       -1.3294545371
 H         -2.4739173173        0.5979783078       -2.0301822605
 H         -3.1009440431        0.1550964852        1.5167624873
 H         -1.4881851562        0.8859563101        3.2420882459
 H          0.6329213806        1.9604980929        2.5773620807
 C          1.5402855610        2.4910801387        0.1203580336
 H          1.8326832232        3.1869536692        0.9178163289
 C          1.5433014036        3.2343081343       -1.1988489967
 C          0.8563595807        4.5626663404       -1.2921501500
 C          2.3525140522        4.4881065960       -1.3285088006
 H          2.8571814691        4.6799154556       -2.2635964231
 H          2.9037035063        4.8186261098       -0.4602144534
 H          0.3898524917        4.9443749757       -0.3966862401
 H          0.3319499027        4.8104150251       -2.2023377079
 H          1.5073965530        2.5808761741       -2.0615492654
 O          1.6967055137        0.2315846879       -1.7226241127
