  62
        -98.93727166
 C          0.6122737959        1.7890339697       -0.7277885185
 C          1.7290667613        2.1044808897        0.0873641164
 C          2.9369757797        1.2831195006       -0.0859613973
 C          2.9276842420        0.2888106188       -0.9896352902
 C          4.0528113669       -0.6389130135       -1.3740037545
 C          4.9010855359       -1.2322699872       -0.2402990194
 C          4.1491408930       -1.4747574178        1.0762985212
 H          3.0749758565       -1.3705846358        0.9172413505
 H          4.3369894422       -2.4975719127        1.4072354024
 C          4.5890726975       -0.5320120961        2.1989827536
 H          4.3205415913       -0.9785564947        3.1592800016
 H          5.6771105733       -0.4386616321        2.1756717189
 C          3.9672820182        0.8633644588        2.1606955661
 H          2.9037637969        0.8036092313        2.4080174378
 H          4.4427667531        1.4663090672        2.9382378085
 C          4.0912230167        1.6042498530        0.8193427195
 H          4.0275052451        2.6771335446        1.0205790657
 H          5.0460402685        1.3971849278        0.3417616741
 H          5.3056918103       -2.1763288553       -0.6088902501
 H          5.7539262345       -0.5829445378       -0.0468486975
 H          3.5757422691       -1.4425347219       -1.9386102836
 H          4.7084394955       -0.1041138198       -2.0675812191
 O          1.8334873360        0.0144099929       -1.7506434321
 C          0.6518770497        0.7394812176       -1.6458255399
 O         -0.2383928079        0.3441615746       -2.4188547096
 O          1.7214312714        3.0541080494        0.9164731304
 C         -0.6288131866        2.6386901546       -0.5257617374
 C         -1.5090905712        2.0665227509        0.5566863027
 C         -2.0609595598        2.8902444401        1.5314180491
 C         -2.8817741572        2.3646338195        2.5131057051
 C         -3.1720251308        1.0127591269        2.5357988576
 C         -2.6161805963        0.1776624123        1.5722793669
 C         -1.7838916504        0.7069304958        0.5962826164
 H         -1.3608028084        0.0559987060       -0.1530088746
 N         -2.8603721230       -1.2003467399        1.5943255672
 S         -2.9043451768       -2.0895494100        0.1776028937
 O         -3.5033092157       -1.3404128627       -0.9008393064
 O         -3.5956739346       -3.3066675078        0.5540256088
 C         -1.2054979250       -2.4948522609       -0.1548851205
 C         -0.7439957657       -2.5045705590       -1.4547927217
 C          0.5655371903       -2.8913443191       -1.6955739107
 C          1.3817839713       -3.2628678300       -0.6398936869
 C          0.9011559777       -3.2484670528        0.6611910284
 C         -0.4055458131       -2.8639302747        0.9092173068
 H         -0.8140538637       -2.8409348375        1.9059912144
 H          1.5410427755       -3.5355132376        1.4802952290
 H          2.4005656431       -3.5627438754       -0.8292527225
 H          0.9398001306       -2.8876701995       -2.7068253839
 H         -1.3996825582       -2.1850240929       -2.2488881427
 H         -3.5420249183       -1.5130570290        2.2696305511
 H         -3.8183752980        0.6012844644        3.2958632240
 H         -3.3046136636        3.0135865221        3.2648299889
 H         -1.8325689342        3.9458364793        1.5217958686
 H         -0.2527767010        3.6081861839       -0.1596941273
 C         -1.3981240757        2.9128696789       -1.8096547557
 C         -2.6457014272        2.1856709405       -2.2009084851
 C         -2.7223486052        3.6172844830       -1.7674928405
 H         -2.9299346193        4.3715827652       -2.5114226606
 H         -3.1497431533        3.8220549795       -0.7975906978
 H         -2.7753762219        1.9487602736       -3.2461828920
 H         -3.0260830336        1.4163426837       -1.5459695100
 H         -0.7309441990        3.1819548592       -2.6231141092
