  62
        -98.93253768
 C          2.4966748191        1.1803154565        0.6002215223
 C          3.3657225128        0.9202792349       -0.4867029760
 C          4.4291815860       -0.0747400369       -0.2452993431
 C          4.5073227447       -0.6939050380        0.9439052143
 C          5.5223650095       -1.7044811829        1.4173731020
 C          5.9436480907       -2.8051800279        0.4347895323
 C          4.8381995407       -3.2812544259       -0.5188322165
 H          4.7793735837       -4.3705902882       -0.4777259450
 H          3.8709669736       -2.8918898265       -0.1953930196
 C          5.0899136415       -2.8787382010       -1.9739521744
 H          6.1437800972       -3.0466577898       -2.2064848007
 H          4.5031861660       -3.5317217371       -2.6245247040
 C          4.7223407547       -1.4385130517       -2.3275638500
 H          3.6357154197       -1.3192979231       -2.3072200194
 H          5.0461029865       -1.2507971310       -3.3540268102
 C          5.3275113247       -0.3591615556       -1.4149787966
 H          6.3307241655       -0.6297931232       -1.0954064528
 H          5.3820667133        0.5712283052       -1.9865136428
 H          6.2924933918       -3.6462741257        1.0364844363
 H          6.7961232230       -2.4647170079       -0.1512697797
 H          5.0754270573       -2.1586198394        2.3052306773
 H          6.4124805363       -1.1611918862        1.7483220422
 O          3.6278676359       -0.4344716677        1.9545313295
 C          2.6126982304        0.4913447929        1.8090069881
 O          1.8882593422        0.6206941008        2.8181618884
 O          3.2877146325        1.4874058188       -1.6052159637
 C          1.3552072413        2.1831290353        0.5312666277
 C          0.1284234567        1.4907938833       -0.0039942545
 C          0.1145896451        0.9304749706       -1.2785407271
 C         -1.0075419804        0.2657553473       -1.7365164577
 C         -2.1315604880        0.1386300087       -0.9374816643
 C         -2.1185955208        0.6723438676        0.3434519472
 C         -0.9940209586        1.3509277256        0.7975593614
 H         -0.9820064640        1.7536965411        1.8016331936
 N         -3.2515112686        0.5465965689        1.1632485012
 S         -4.0301718360       -0.9371886393        1.2540800381
 O         -4.7126909090       -0.9226306458        2.5294112226
 O         -3.1195123812       -2.0342958498        1.0226873269
 C         -5.2414733349       -0.8574672242       -0.0495123558
 C         -5.3199504592       -1.8753956564       -0.9795623839
 C         -6.2785258793       -1.7987728683       -1.9782003175
 C         -7.1376588134       -0.7118615141       -2.0281028867
 C         -7.0476884519        0.3009892925       -1.0847773342
 C         -6.0930412961        0.2295787248       -0.0830540455
 H         -5.9932804477        0.9932980906        0.6698929001
 H         -7.7173070908        1.1448294925       -1.1271585317
 H         -7.8816246751       -0.6538380420       -2.8068436630
 H         -6.3502191538       -2.5858479752       -2.7116159747
 H         -4.6269350135       -2.6984978015       -0.9049990791
 H         -3.1363262931        0.9481924740        2.0826092667
 H         -3.0050147070       -0.3851593561       -1.2898437143
 H         -1.0086855073       -0.1613213359       -2.7280203392
 H          0.9959338918        1.0187773568       -1.8958763149
 H          1.1522469602        2.4516054640        1.5799057941
 C          1.7223946572        3.4640209952       -0.2065900910
 C          0.9857408225        3.9723468552       -1.4067301452
 C          0.8285019631        4.6636956702       -0.0885680302
 H          1.2784702778        5.6350426961        0.0503761807
 H         -0.1067596004        4.5314276045        0.4351330359
 H          1.5660714629        4.4525095880       -2.1797634833
 H          0.1527204775        3.3982570146       -1.7800937356
 H          2.7895045970        3.6551954833       -0.1866047314
