  62
        -98.94293692
 C         -2.4942670172       -0.8262091840        0.4936424803
 C         -2.5909852768        0.3516901934       -0.2855410596
 C         -3.7673732694        1.1903921621       -0.0226690715
 C         -4.6467436655        0.8319247181        0.9305001587
 C         -5.8800451739        1.5956434262        1.3304097612
 C         -7.1022565846        1.3145449958        0.4455807719
 C         -7.0437426886        1.9225246074       -0.9563142318
 H         -8.0440140154        1.8350033482       -1.3851411873
 H         -6.8141325123        2.9858054030       -0.8806032754
 C         -6.0413644107        1.2432195290       -1.8998758121
 H         -5.7685667700        0.2645034359       -1.4983366578
 H         -6.5138695507        1.0702697800       -2.8694972228
 C         -4.7656012986        2.0462363027       -2.1544654057
 H         -5.0139780097        2.9725034698       -2.6773063426
 H         -4.1140230863        1.4568351725       -2.8045665150
 C         -3.9763150180        2.3974806321       -0.8863673692
 H         -2.9915639899        2.7650065543       -1.1851477512
 H         -4.4888386166        3.1813959784       -0.3293252090
 H         -7.9764093869        1.7218822107        0.9587980381
 H         -7.2365236589        0.2330655007        0.3686993234
 H         -5.6660529093        2.6647348096        1.3286769561
 H         -6.1171494928        1.2897199555        2.3516680369
 O         -4.4990805520       -0.2942127126        1.6789820810
 C         -3.4359200755       -1.1567724445        1.4676198890
 O         -3.4344763675       -2.1633690595        2.2057714830
 O         -1.7436158112        0.6867489489       -1.1531430358
 C         -1.3337840019       -1.7806119154        0.2793377406
 C         -0.0231398587       -1.0697735066        0.5158983859
 C          0.1446149634       -0.3472611314        1.6945932188
 C          1.3317358894        0.3063257772        1.9609688364
 C          2.3813606158        0.2540296327        1.0598514940
 C          2.2309529875       -0.4738892860       -0.1112883067
 C          1.0361178785       -1.1337691552       -0.3747581622
 H          0.9371380183       -1.6947184326       -1.2911009251
 N          3.2896784507       -0.5288176729       -1.0318578412
 S          4.8318665465       -0.8805365283       -0.4758334981
 O          5.5261282653       -1.4331860588       -1.6184961500
 O          4.7915770991       -1.7041626074        0.7101619912
 C          5.5298827032        0.7117289316       -0.0915718062
 C          6.0738773391        0.9402588139        1.1570801536
 C          6.6298197813        2.1806051558        1.4294270849
 C          6.6325531177        3.1647798304        0.4529819968
 C          6.0832126762        2.9188251303       -0.7966646037
 C          5.5272444181        1.6806886528       -1.0757204173
 H          5.0939132850        1.4498491302       -2.0345784652
 H          6.0864846051        3.6871389125       -1.5530173624
 H          7.0652880270        4.1293423422        0.6669076163
 H          7.0573249163        2.3736589275        2.4002732987
 H          6.0449702653        0.1468832983        1.8870322878
 H          3.0775550193       -1.0439823176       -1.8737915616
 H          3.3087605171        0.7654944591        1.2594970101
 H          1.4421905799        0.8652863470        2.8779464656
 H         -0.6748410466       -0.3052441364        2.3997714306
 H         -1.4358412858       -2.5613697904        1.0475637077
 C         -1.4434649544       -2.4259559628       -1.0866447337
 C         -0.8688055090       -3.7886696544       -1.3283165861
 C         -2.3542416472       -3.6027608265       -1.2580784289
 H         -2.9286118615       -3.6830844985       -2.1688075342
 H         -2.8753447018       -3.9577091421       -0.3806661567
 H         -0.4259613940       -4.0009112953       -2.2901778731
 H         -0.3791637732       -4.2795855087       -0.5005509919
 H         -1.4061040278       -1.7021996071       -1.8930357667
