  62
        -98.94702655
 C         -2.2365825701       -0.6725809698       -0.4876632971
 C         -1.4670133554        0.3113580646       -1.1530978557
 C         -1.8600385624        1.7090084957       -0.9194428685
 C         -2.8845854039        1.9829703834       -0.0938369138
 C         -3.3560472807        3.3605428370        0.2697892616
 C         -2.6567261899        3.8794313714        1.5333510291
 C         -1.1340433884        3.7413821419        1.5049100956
 H         -0.7505819686        4.1873215217        2.4258776469
 H         -0.8602068156        2.6832988097        1.5305169805
 C         -0.4560250646        4.4028755779        0.2970682002
 H          0.4222499586        4.9489910829        0.6480472076
 H         -1.1310276201        5.1286960233       -0.1592454210
 C          0.0296019115        3.4127001047       -0.7630424009
 H          0.7136895028        3.9377068613       -1.4356573525
 H          0.5933912405        2.6165844786       -0.2701666004
 C         -1.0677312973        2.7739580245       -1.6247006216
 H         -1.7288856874        3.5507639174       -2.0151037878
 H         -0.5830080804        2.2787250134       -2.4710185532
 H         -3.0335489006        3.3203675710        2.3931643851
 H         -2.9242469844        4.9296087692        1.6672830898
 H         -3.1676915694        4.0343603860       -0.5638751583
 H         -4.4310863299        3.3165676299        0.4541148409
 O         -3.5984222686        1.0158675914        0.5373694204
 C         -3.2852041864       -0.3206330327        0.3677377654
 O         -4.0161156818       -1.0998414988        1.0140982039
 H          0.5251518940       -1.1612046693       -0.2461162260
 C          0.2990182348       -1.9188380182        0.4839632567
 C         -0.9298305159       -2.5628299237        0.4468076831
 C         -1.1982275445       -3.5486968515        1.3882695786
 C         -0.2628159613       -3.8667923009        2.3570149794
 C          0.9381084134       -3.1849321113        2.4232320916
 C          1.2165026588       -2.1955117823        1.4853692472
 N          2.4192711089       -1.4764764593        1.5410570053
 S          2.4582375990        0.1917411991        1.3082254967
 O          3.3172546872        0.6891910904        2.3659046246
 O          1.1308846650        0.7504522346        1.2544005165
 C          3.3296919249        0.3648688830       -0.2359770044
 C          4.7111191538        0.3314363220       -0.1834148382
 C          5.4346319024        0.4367738778       -1.3590430952
 C          4.7677946060        0.5734513879       -2.5675773556
 C          3.3831409390        0.6059846650       -2.6036585380
 C          2.6514791810        0.4995187823       -1.4296679185
 H          1.5723844281        0.5183317672       -1.4464591581
 H          2.8581485929        0.7107791827       -3.5397872044
 H          5.3288503930        0.6560783471       -3.4852059074
 H          6.5121108044        0.4125218226       -1.3304387668
 H          5.1874464552        0.2387938165        0.7785846910
 H          3.0103673165       -1.7293677445        2.3198969806
 H          1.6549763166       -3.4085858980        3.1992447191
 H         -0.4805368019       -4.6360522068        3.0825625875
 H         -2.1543873775       -4.0509436495        1.3713389841
 C         -1.9645627502       -2.1674595392       -0.5808014497
 H         -2.9085829821       -2.6587472931       -0.3064109360
 C         -1.5653055292       -2.6416108900       -1.9638708096
 C         -1.8073564211       -4.0721221475       -2.3369847386
 C         -2.6321669281       -2.9852617287       -2.9573400343
 H         -2.4682084112       -2.7362064252       -3.9947882411
 H         -3.6603989678       -2.8815335333       -2.6415604167
 H         -2.2793332953       -4.7090992947       -1.6042207272
 H         -1.0743823019       -4.5743384183       -2.9492233823
 H         -0.6699689509       -2.1663813853       -2.3406077588
 O         -0.4987911542        0.0635640863       -1.9206652680
