  62
        -98.93832865
 C         -1.6119456418       -1.5086311568       -0.4617209770
 C         -1.4561510267       -0.2424972144       -1.0727913199
 C         -2.6493303267        0.6291432855       -1.0988797098
 C         -3.8074490184        0.1770785077       -0.5899659922
 C         -5.1252666649        0.8954650528       -0.4857542157
 C         -5.2613534994        1.6007952710        0.8739710985
 C         -4.6912173422        3.0174806851        0.9242092556
 H         -5.3271621548        3.6818477760        0.3352367640
 H         -4.7397166099        3.3522180168        1.9629716206
 C         -3.2492608119        3.1574905289        0.4302428846
 H         -2.6383968237        2.3433921466        0.8265667807
 H         -2.8412524072        4.0849170174        0.8375764716
 C         -3.1371013094        3.1938305838       -1.1010125891
 H         -4.1303446776        3.3116109956       -1.5336150117
 H         -2.5619615536        4.0731371887       -1.3996085255
 C         -2.4359349492        1.9816389628       -1.7239364783
 H         -2.6998181858        1.9215750917       -2.7856761473
 H         -1.3531513972        2.1384817896       -1.6802552757
 H         -4.7674921145        0.9792332197        1.6255164855
 H         -6.3197921927        1.6531024596        1.1372254036
 H         -5.2530610263        1.5941279140       -1.3068430150
 H         -5.8982536284        0.1270861878       -0.5559307163
 O         -3.9216473383       -1.0608343836       -0.0323620229
 C         -2.8408683756       -1.9129003032        0.0677678528
 O         -3.0971673190       -2.9988533219        0.6266664593
 H          1.3035308111       -0.4638646190        0.0485565484
 C          1.1852705637       -1.0485243421        0.9443357981
 C          0.3137084435       -2.1292481710        0.9491796190
 C          0.1439713084       -2.8505162444        2.1259766056
 C          0.8288680866       -2.4941435574        3.2734466167
 C          1.6872329733       -1.4103018983        3.2688114520
 C          1.8618274526       -0.6784422694        2.0980825543
 N          2.7451665573        0.4059848548        2.0733253490
 S          2.5167948889        1.7389497408        1.0834646111
 O          3.2718767734        2.7861875873        1.7433884845
 O          1.1183405313        2.0134884978        0.8640319410
 C          3.3707497514        1.2944262173       -0.4137065611
 C          4.7423016434        1.1477078104       -0.3269082655
 C          5.4537285025        0.7944677906       -1.4608940306
 C          4.7843035225        0.5949241554       -2.6594312461
 C          3.4091802367        0.7501442146       -2.7300017550
 C          2.6896471025        1.1053748811       -1.5981585644
 H          1.6163505140        1.2145287172       -1.6219445540
 H          2.8844861350        0.5932999497       -3.6592227624
 H          5.3365976759        0.3176770834       -3.5436717604
 H          6.5238529534        0.6743339821       -1.4084851570
 H          5.2225137022        1.3226777978        0.6214291278
 H          3.1353811047        0.6622254751        2.9677416149
 H          2.2170980794       -1.1256776537        4.1653220096
 H          0.6875873955       -3.0605383720        4.1816779286
 H         -0.5474895087       -3.6807430008        2.1382160883
 C         -0.4727475646       -2.5034829818       -0.2857381572
 H         -0.9568759803       -3.4696714905       -0.0876545001
 C          0.4130031860       -2.6556051688       -1.5050659462
 C          1.2955877935       -3.8621373002       -1.6060381750
 C          0.1043612718       -3.7269763100       -2.5052949708
 H          0.2661641891       -3.5157093068       -3.5515448147
 H         -0.7525722634       -4.3574539768       -2.3159130276
 H          2.2793867221       -3.7447091085       -2.0333303772
 H          1.2457411702       -4.5854035599       -0.8059624276
 H          0.7945822019       -1.7192757295       -1.8875092785
 O         -0.3853291390        0.1651065345       -1.5934661980
