  62
        -98.94533561
 C          1.4850091915        1.3014636808       -0.5886769972
 C          2.8047339528        1.2804598434       -0.0654059396
 C          3.6755462251        0.1892497159       -0.5168658722
 C          3.1927970714       -0.7140779411       -1.3888843789
 C          3.9435298404       -1.9152094355       -1.8850222008
 C          3.6859091690       -3.1358604434       -0.9908179783
 C          3.8671464920       -2.8583347277        0.5017182937
 H          3.0893906772       -2.1640795818        0.8303505187
 H          3.6948166751       -3.7992121980        1.0293574376
 C          5.2457855669       -2.3008472108        0.8836370057
 H          5.6021621911       -2.8292001450        1.7703791838
 H          5.9585959473       -2.4958880743        0.0815912249
 C          5.2559420931       -0.8084133007        1.2196280905
 H          4.4748313521       -0.5938331191        1.9536732521
 H          6.2167482471       -0.5710998350        1.6841651722
 C          5.0741236825        0.1436348407        0.0310191201
 H          5.7877237533       -0.1093915143       -0.7557325200
 H          5.2913326360        1.1569730305        0.3812922231
 H          2.6581246477       -3.4718793317       -1.1497175152
 H          4.3588738598       -3.9385505654       -1.2985273646
 H          3.6040557650       -2.1402985510       -2.8974775620
 H          5.0076180275       -1.6878104244       -1.9101636162
 O          1.9353182886       -0.6522049240       -1.8885774723
 C          1.0427984450        0.3357008502       -1.4930403642
 O         -0.0718073415        0.2360033177       -2.0405943858
 O          3.2376969633        2.1475830757        0.7411755009
 C          0.5792750482        2.4077257108       -0.0707398391
 C         -0.1667298816        1.9145606143        1.1475279586
 C          0.0703303416        2.4762026037        2.3962148587
 C         -0.5806280907        1.9933266872        3.5175265262
 C         -1.4673658487        0.9384511406        3.4129454075
 C         -1.7138694598        0.3687727397        2.1665621283
 C         -1.0774079569        0.8713803298        1.0412831954
 H         -1.2548901187        0.4173246083        0.0810091201
 N         -2.6224072168       -0.6879057909        2.0497515852
 S         -2.5503734311       -1.8524492585        0.8489924203
 O         -3.2099120614       -2.9981235519        1.4440823159
 O         -1.2007300374       -2.0705117896        0.3872434788
 C         -3.6130154203       -1.1943917044       -0.4185878189
 C         -3.1075339528       -0.7415577102       -1.6191221173
 C         -3.9876108775       -0.2222202417       -2.5579992094
 C         -5.3447848016       -0.1677161777       -2.2847010607
 C         -5.8368147011       -0.6327809070       -1.0738189865
 C         -4.9648738145       -1.1508058581       -0.1316954753
 H         -5.3044079770       -1.5342053324        0.8161011776
 H         -6.8933944384       -0.5916753538       -0.8635443413
 H         -6.0216307971        0.2385280947       -3.0198687457
 H         -3.5986421930        0.1388997245       -3.4968905227
 H         -2.0455761085       -0.7817897829       -1.8081471600
 H         -2.9630599450       -1.0612820847        2.9227378272
 H         -1.9643241632        0.5496234658        4.2887695961
 H         -0.3864174705        2.4339120994        4.4837123972
 H          0.7875619611        3.2786010663        2.4865515077
 H          1.2609888965        3.2037650885        0.2598077617
 C         -0.3686116627        2.9886583721       -1.0988213902
 C         -0.9122215326        4.3679234311       -0.8802485934
 C          0.0929983388        4.1210664658       -1.9640800772
 H         -0.2342285048        4.1477740882       -2.9923999525
 H          1.1004600365        4.4831229435       -1.8183433647
 H         -1.9343040447        4.5675672864       -1.1624080818
 H         -0.5859610136        4.9007198792        0.0001159096
 H         -1.0229513243        2.2558812752       -1.5509563449
