  62
        -98.93392350
 C          1.8839080363        1.1077666072        0.2535542369
 C          2.3565081372        0.1345131689        1.1676169503
 C          2.6484223721       -1.1969882053        0.6187778813
 C          2.3999746793       -1.4342273376       -0.6817371032
 C          2.7003303194       -2.7156449444       -1.4068113292
 C          4.2091796129       -2.8108804079       -1.7115463506
 C          4.9288702783       -3.9467244675       -0.9840892703
 H          4.6813280038       -4.8922043329       -1.4708866456
 H          6.0018012215       -3.7836578009       -1.1047033739
 C          4.6110548875       -4.0909616169        0.5073119936
 H          3.6566779857       -4.6048205249        0.6316390620
 H          5.3751462424       -4.7442173293        0.9337688635
 C          4.5725546159       -2.7869457245        1.3144735154
 H          5.0240599785       -2.9776164506        2.2900987217
 H          5.1735277581       -2.0164730322        0.8310319093
 C          3.1579505059       -2.2372531650        1.5780810044
 H          3.1501024025       -1.7424553080        2.5540987061
 H          2.4443298462       -3.0650748333        1.6274939017
 H          4.3549924292       -2.9445621760       -2.7844189975
 H          4.6711017351       -1.8571319921       -1.4480329914
 H          2.1219891449       -2.7057754482       -2.3310172854
 H          2.3749235819       -3.5604346569       -0.8034041287
 O          1.9080076881       -0.4886168405       -1.5216630414
 C          1.6163169582        0.7942778566       -1.0802975506
 O          1.1500483728        1.5366393481       -1.9645870432
 O          2.5232369783        0.3703465874        2.3961699570
 C          1.5213990640        2.4759376953        0.8050600813
 C          0.1268374412        2.8362292665        0.3570013421
 C         -0.2077811551        4.0254344658       -0.2756745905
 C         -1.5095990211        4.2538483086       -0.6881201406
 C         -2.4935352272        3.3029272024       -0.4949024477
 C         -2.1697276175        2.1125055680        0.1476399353
 C         -0.8752434811        1.9008912921        0.5870062032
 H         -0.6328106669        0.9698908628        1.0811583242
 N         -3.1456247706        1.1243006445        0.3768639238
 S         -2.6676021881       -0.4931045959        0.2681036720
 O         -2.0854934279       -0.8905088975        1.5270483352
 O         -1.8583507689       -0.7092025328       -0.9101945588
 C         -4.2607175304       -1.2731935371        0.0773845351
 C         -4.7224802795       -1.5666360447       -1.1918402576
 C         -5.9779885131       -2.1368247871       -1.3335097245
 C         -6.7475698812       -2.3990064958       -0.2099779279
 C         -6.2703467722       -2.0997262623        1.0575322017
 C         -5.0154493738       -1.5306052929        1.2062141908
 H         -4.5975160997       -1.2881284234        2.1692688605
 H         -6.8700288779       -2.3076485336        1.9288570481
 H         -7.7242940619       -2.8420323385       -0.3232056132
 H         -6.3495592251       -2.3734872914       -2.3174550261
 H         -4.0843818875       -1.3523946197       -2.0345133823
 H         -3.9908312879        1.2871315818       -0.1545332029
 H         -3.5015604992        3.4731447415       -0.8415245499
 H         -1.7559987061        5.1789449522       -1.1870343575
 H          0.5536595545        4.7619287686       -0.4727116927
 H          1.4936357054        2.3256694508        1.8983592619
 C          2.5514782196        3.5643133100        0.5452349487
 C          3.9871359733        3.2223053782        0.2839215450
 C          3.1440850408        3.8009887390       -0.8104543580
 H          3.3327968453        4.8200568430       -1.1152005219
 H          2.8231496822        3.1551363862       -1.6122067326
 H          4.7512776491        3.8405176925        0.7307456649
 H          4.2479514748        2.1751727972        0.2281064985
 H          2.3749575912        4.4426251015        1.1586321561
