  62
        -98.93959234
 C         -2.2775109287       -0.8990703991        0.6444191371
 C         -3.4213153046       -0.8846960715       -0.1914009776
 C         -4.4204612507        0.1546751386        0.1031368665
 C         -4.2047416845        1.0201953785        1.1090870373
 C         -5.1087608758        2.1624284039        1.4701652990
 C         -4.7124959412        3.4439634433        0.7236200402
 C         -4.5178347167        3.2490238865       -0.7801680382
 H         -4.2711688771        4.2247835861       -1.2044441724
 H         -3.6542647011        2.6003104020       -0.9459294847
 C         -5.7372861523        2.6673624716       -1.5089461820
 H         -6.6293091677        2.7899865180       -0.8936835112
 H         -5.8972713861        3.2332193642       -2.4290771705
 C         -5.5952810114        1.1976440236       -1.9084083042
 H         -6.4071738198        0.9529502063       -2.5983403184
 H         -4.6542202470        1.0531483809       -2.4449088521
 C         -5.6529866881        0.1860780705       -0.7570416376
 H         -6.5408773496        0.3699490752       -0.1491239034
 H         -5.7364872119       -0.8120117746       -1.1964135509
 H         -5.4831223475        4.1970094167        0.8983479503
 H         -3.7741592730        3.8132013198        1.1444502551
 H         -6.1362726493        1.8941022558        1.2322835096
 H         -5.0274050333        2.3382414385        2.5441263158
 O         -3.0969260730        0.9761747784        1.8936806611
 C         -2.1160821335        0.0233726849        1.6832752608
 O         -1.1626318070        0.0909476736        2.4870016331
 O         -3.6252341376       -1.6883078748       -1.1390206234
 C         -1.1454111016       -1.9032040860        0.4892649028
 C         -0.2034330612       -1.4941692596       -0.6185371977
 C         -0.6050544401       -1.4813773566       -1.9504136537
 C          0.2804351128       -1.1017293211       -2.9420698954
 C          1.5761182119       -0.7312061360       -2.6288360066
 C          1.9896951906       -0.7467336174       -1.3015549641
 C          1.0982342804       -1.1265363919       -0.3078188790
 H          1.4226811141       -1.1146984484        0.7222353962
 N          3.3168955501       -0.4226949973       -0.9692281581
 S          3.6443016544        0.3646523974        0.4872780360
 O          3.5739062424       -0.5945958178        1.5604403130
 O          2.8187034395        1.5454472537        0.6134905012
 C          5.3460458824        0.8211137636        0.2105103740
 C          5.6628849207        2.1247279187       -0.1201709499
 C          6.9889379404        2.4532481158       -0.3561433595
 C          7.9694179167        1.4774017600       -0.2608413979
 C          7.6360559142        0.1728234139        0.0728097901
 C          6.3128560602       -0.1618145869        0.3116090925
 H          6.0072406846       -1.1587704904        0.5828046026
 H          8.4013215680       -0.5826648960        0.1485828831
 H          9.0002591955        1.7356760837       -0.4449523097
 H          7.2511556943        3.4671242316       -0.6122871711
 H          4.8675245263        2.8506259452       -0.1756419756
 H          3.8095872202        0.0182173951       -1.7346774765
 H          2.2648859853       -0.4349728999       -3.4055541510
 H         -0.0434036925       -1.0899993435       -3.9719444923
 H         -1.6198941483       -1.7534727786       -2.1955217672
 H         -0.5817232647       -1.8573654000        1.4316789867
 C         -1.6283163712       -3.3274909288        0.2919908271
 C         -0.6911667250       -4.4542029495        0.6010505748
 C         -1.8680134385       -4.1914118621        1.4913059311
 H         -2.6974687373       -4.8821605698        1.4704529055
 H         -1.6851709924       -3.7575346089        2.4641628034
 H         -0.7099560939       -5.3282702210       -0.0314086483
 H          0.2908531547       -4.1980688074        0.9708881446
 H         -2.3008411403       -3.4438335899       -0.5469444722
