  62
        -98.94382923
 C         -1.3157980892       -1.4188052909        0.6107889497
 C         -2.1022985599       -1.0093909312       -0.4946343199
 C         -3.1330145005        0.0005758881       -0.2099585793
 C         -3.2620892603        0.4866857578        1.0367812908
 C         -4.2351942108        1.5521555271        1.4485398114
 C         -3.6051473218        2.9485609075        1.3546965314
 C         -2.9003470125        3.2280428782        0.0265227011
 H         -2.5417409131        4.2596383484        0.0630811312
 H         -2.0114579821        2.5960924988       -0.0534019093
 C         -3.7827233229        3.0394086478       -1.2155338985
 H         -4.8350742528        3.0672832571       -0.9290844981
 H         -3.6080947937        3.8771927381       -1.8940514085
 C         -3.5051797623        1.7611395781       -2.0090746489
 H         -2.4314262024        1.6777820489       -2.1990202593
 H         -4.0042991528        1.8480171980       -2.9781159086
 C         -3.9836345612        0.4553942877       -1.3616383989
 H         -5.0280526712        0.5543413770       -1.0588747684
 H         -3.9155533210       -0.3335401921       -2.1164500090
 H         -4.3893906322        3.6913577370        1.5144214418
 H         -2.8688017815        3.0530417579        2.1551707211
 H         -5.1170373610        1.4966525466        0.8132182418
 H         -4.5308328503        1.3671413767        2.4829233415
 O         -2.4762990996        0.0868041681        2.0688247805
 C         -1.4617265391       -0.8358770012        1.8712223799
 O         -0.7635146485       -1.0513992609        2.8833734896
 H          0.5956348895        0.0777372705       -0.0865248308
 C          1.0137665397       -0.6077133391       -0.8071764811
 C          0.6980937206       -1.9571162393       -0.7214298012
 C          1.2098324408       -2.8168948988       -1.6837618315
 C          2.0065248401       -2.3243855581       -2.7040076618
 C          2.3216038791       -0.9800008179       -2.7810294217
 C          1.8101942490       -0.1107748384       -1.8234467413
 N          2.0817368880        1.2644731618       -1.8628926112
 S          2.1688621180        2.1423575616       -0.4457025011
 O          0.8548795181        2.3428654807        0.1124101795
 O          2.8842053471        3.3443213221       -0.8184316712
 C          3.1843331491        1.1553909621        0.6402076583
 C          2.6493266300        0.5461859616        1.7563171785
 C          3.4679694608       -0.2509925080        2.5417392380
 C          4.8002463908       -0.4230078971        2.2014411574
 C          5.3266820699        0.2043340834        1.0820220973
 C          4.5126182191        0.9983983230        0.2921286278
 H          4.8868969684        1.5112872234       -0.5788402223
 H          6.3648146299        0.0737880542        0.8226911769
 H          5.4307166315       -1.0471814968        2.8147208171
 H          3.0503114415       -0.7357316384        3.4100528781
 H          1.6081301000        0.6914877908        2.0012131289
 H          2.7665136376        1.5553334023       -2.5439535914
 H          2.9402730386       -0.6015838174       -3.5799847719
 H          2.3906012002       -3.0009868278       -3.4522687420
 H          0.9694775515       -3.8667273990       -1.6510283616
 C         -0.1585629586       -2.3891557701        0.4452377991
 H          0.4481907617       -2.2544890098        1.3571949989
 C         -0.5526710177       -3.8585261903        0.4067368990
 C         -1.8783276972       -4.3221488313        0.9311291795
 C         -1.5896873277       -4.3858883808       -0.5371586306
 H         -1.4290247673       -5.3561583807       -0.9842396609
 H         -2.0730498684       -3.6754224211       -1.1881625503
 H         -2.5687005175       -3.5690692618        1.2836989399
 H         -1.9130173263       -5.2435986214        1.4931608394
 H          0.2916214928       -4.5092179298        0.6124195686
 O         -1.9598221901       -1.4524775709       -1.6633079600
