  62
        -98.93892431
 C          2.0688663365        0.9296018478       -0.4247414963
 C          3.1209136682        1.1780531231        0.4887033749
 C          4.3958341788        0.4842421902        0.2389110330
 C          4.4937812778       -0.3579168259       -0.8067324525
 C          5.6602359051       -1.1731217258       -1.3251525782
 C          6.9115013817       -1.3760564767       -0.4748256381
 C          6.7045635074       -2.2349669589        0.7724521538
 H          6.5217328504       -3.2655371104        0.4575477668
 H          7.6300467430       -2.2240872521        1.3523642187
 C          5.5466914712       -1.8185214661        1.6761613402
 H          5.5087186048       -2.5196287381        2.5143835297
 H          4.6037545129       -1.9166984265        1.1339923774
 C          5.6430319774       -0.4082738426        2.2546071803
 H          6.5965329615       -0.2875860947        2.7724124518
 H          4.8447741835       -0.3010513231        2.9939500659
 C          5.4884102257        0.7358139963        1.2380145402
 H          5.1999984442        1.6370026650        1.7868667344
 H          6.4285456142        0.9474065773        0.7344907178
 H          7.6390333854       -1.8886102292       -1.1101301554
 H          7.3467495163       -0.4169020917       -0.2102842933
 H          5.2449020892       -2.1508510079       -1.5899256502
 H          5.9559173271       -0.7000472176       -2.2682132612
 O          3.4468315121       -0.5733195613       -1.6559693776
 C          2.2188060880        0.0475824786       -1.4929066227
 O          1.3748140176       -0.2648963908       -2.3542695484
 O          3.0047635803        1.9576026678        1.4716529419
 C          0.7352546677        1.6208872754       -0.1943443872
 C         -0.2772550454        0.5764333676        0.2040461560
 C         -0.2531964902        0.0773182996        1.5039580006
 C         -1.1294373877       -0.9164581921        1.8967765250
 C         -2.0475321881       -1.4366989931        1.0010445834
 C         -2.0796216921       -0.9451476290       -0.2969534018
 C         -1.2081704006        0.0646286369       -0.6860661803
 H         -1.2357913664        0.4245984564       -1.7021057678
 N         -3.0068490119       -1.4702531575       -1.2114991509
 S         -4.5868272946       -1.6782050782       -0.7083791215
 O         -4.6978561634       -2.8898766245        0.0654601889
 O         -5.3809114206       -1.6252247311       -1.9156619211
 C         -4.9290685224       -0.2660074354        0.3272316837
 C         -4.8838710119        0.9871440864       -0.2513228729
 C         -5.1086466014        2.1002405087        0.5417140862
 C         -5.3706902735        1.9422668047        1.8942635359
 C         -5.4165267305        0.6775245197        2.4592870966
 C         -5.1920446385       -0.4396862886        1.6704853657
 H         -5.2181934524       -1.4405844104        2.0693596176
 H         -5.6224132351        0.5577561669        3.5107486306
 H         -5.5411867009        2.8110715764        2.5102913593
 H         -5.0753831998        3.0850821197        0.1041540970
 H         -4.6838146876        1.0738528967       -1.3071755475
 H         -2.9542941588       -1.0609801058       -2.1320762363
 H         -2.7266887917       -2.2250474048        1.2823533061
 H         -1.0964942446       -1.2945942534        2.9072210888
 H          0.4735682690        0.4736013079        2.1993434748
 H          0.8987365581        2.2826015126        0.6669417544
 C          0.3220774155        2.4616283715       -1.3833900483
 C         -0.7502136899        3.4950465205       -1.2146388909
 C          0.6747326634        3.9174848013       -1.4059920002
 H          0.9607434290        4.3624141326       -2.3473740932
 H          1.2100788756        4.3149019575       -0.5562894680
 H         -1.4456125522        3.6551763172       -2.0243621271
 H         -1.1824981920        3.6044132191       -0.2317433316
 H          0.3736255173        1.9279494789       -2.3248447859
