  62
        -98.94847244
 C         -0.8327094610       -1.2317840313        0.5657188752
 C         -1.1988719403       -0.5349359404       -0.6105962506
 C         -2.1391352756        0.5765735969       -0.4179371875
 C         -2.4694421168        0.9620346356        0.8273683743
 C         -3.4061060076        2.0832257823        1.1876169982
 C         -4.8833399007        1.6660464830        1.2098651552
 C         -5.5068452966        1.4245237179       -0.1656199757
 H         -6.5862520047        1.3514848812       -0.0185888079
 H         -5.3232137927        2.2899008569       -0.8029464668
 C         -5.0172766140        0.1506903265       -0.8689975759
 H         -4.5409357654       -0.5082952392       -0.1392343938
 H         -5.8739768917       -0.3913360068       -1.2758904175
 C         -4.0460495206        0.3953835003       -2.0244239724
 H         -4.5567453132        0.9409535493       -2.8207515194
 H         -3.7404889241       -0.5751583102       -2.4230794271
 C         -2.7788390091        1.1701888606       -1.6359345397
 H         -2.0619193290        1.0906992533       -2.4556624399
 H         -3.0187110994        2.2197122862       -1.4728437437
 H         -4.9830148274        0.7652041746        1.8200216517
 H         -5.4414988340        2.4645994035        1.7042110389
 H         -3.1255133771        2.4165957024        2.1891868171
 H         -3.2777999299        2.9135487379        0.4932809762
 O         -1.9642579972        0.3613315092        1.9398778526
 C         -1.1957874172       -0.7877207092        1.8361948629
 O         -0.8963235061       -1.3083091635        2.9314076446
 H          1.6823853680       -0.5740934650        1.1115202691
 C          2.0710768777       -1.1772144434        0.3030269126
 C          1.3179376859       -2.2400407884       -0.1807959200
 C          1.8444521739       -3.0186524450       -1.2033926546
 C          3.0903114834       -2.7292809308       -1.7320832655
 C          3.8340742791       -1.6666030084       -1.2542995982
 C          3.3194696388       -0.8878227966       -0.2230859299
 N          4.0599284040        0.1815087012        0.3007187544
 S          3.3069963534        1.5212899792        0.9343115593
 O          4.3375898728        2.5398102151        0.9248669048
 O          2.7416529992        1.2257443605        2.2276581688
 C          2.0235610274        2.0030365933       -0.2070324902
 C          2.2366174645        1.9022861093       -1.5671571870
 C          1.2706041625        2.3852354460       -2.4344065911
 C          0.1235526461        2.9774712955       -1.9317441319
 C         -0.0772383941        3.0686564286       -0.5639580562
 C          0.8771268504        2.5716013362        0.3078192200
 H          0.7525845429        2.6100699742        1.3791154391
 H         -0.9684249278        3.5281914791       -0.1689047914
 H         -0.6186647219        3.3692556823       -2.6088076223
 H          1.4184013001        2.3024975674       -3.4990076767
 H          3.1421608176        1.4515467620       -1.9386947078
 H          4.9095300086        0.4116045667       -0.1925605046
 H          4.8061959335       -1.4422029609       -1.6656620607
 H          3.4865896953       -3.3389638171       -2.5295884298
 H          1.2796115159       -3.8512053001       -1.5884327890
 C         -0.0186913903       -2.5083527954        0.4646558852
 H          0.1700577942       -2.8299746815        1.4999999622
 C         -0.8302187481       -3.5768581224       -0.2398112376
 C         -0.6171307526       -5.0247925256        0.0804368381
 C         -1.8633486621       -4.3309726086        0.5400428578
 H         -2.7989579300       -4.5737070579        0.0588368728
 H         -1.9619537677       -4.0939269346        1.5898957987
 H         -0.7006451396       -5.7481390376       -0.7165827132
 H          0.1283238797       -5.2685160402        0.8223354601
 H         -1.0750684888       -3.3072876519       -1.2606873479
 O         -0.7855871900       -0.8360333226       -1.7590199114
