  62
        -98.93380229
 C         -2.4781015936       -1.2640058025        0.0588909674
 C         -2.4760579348       -0.0299314807       -0.6318763460
 C         -3.7951596508        0.5812879918       -0.8738006274
 C         -4.9042758446       -0.0504866993       -0.4523724353
 C         -6.3439649816        0.3649736019       -0.6254220946
 C         -6.6881328143        1.8418382220       -0.3871200283
 C         -5.8376497727        2.5428427435        0.6821762062
 H         -6.5002976275        3.0443085571        1.3899261057
 H         -5.2587406507        1.8068624188        1.2426981431
 C         -4.8928361650        3.5958354653        0.0979175584
 H         -4.6053233662        4.2893766534        0.8917208723
 H         -5.4329916258        4.1700046077       -0.6579879000
 C         -3.6025999582        3.0529521277       -0.5159067731
 H         -2.9428436360        2.6784092812        0.2719810581
 H         -3.0818620572        3.8845333521       -0.9971207377
 C         -3.7820594707        1.9245624117       -1.5447090648
 H         -4.6700629443        2.0814001149       -2.1523691938
 H         -2.9059142500        1.9256518720       -2.1992656902
 H         -7.7394131219        1.8771917975       -0.0966778065
 H         -6.6028570962        2.3915024877       -1.3233980750
 H         -6.9044984704       -0.2592042802        0.0744792557
 H         -6.6601053426        0.0819218587       -1.6335184565
 O         -4.8574623848       -1.2456661821        0.2024235638
 C         -3.6572026082       -1.8750426217        0.4809284050
 O         -3.7703172664       -2.9505219818        1.1032967750
 O         -1.4258723672        0.5361374310       -1.0357085804
 C         -1.1668851284       -1.9669049431        0.3575606552
 C         -0.2393022997       -1.0409266648        1.1062533556
 C         -0.7251245286       -0.3574796378        2.2183486376
 C          0.0869404527        0.5067667436        2.9255742511
 C          1.3999961590        0.7088718205        2.5380953172
 C          1.9012721866        0.0183010128        1.4415617342
 C          1.0846839838       -0.8586669688        0.7398351626
 H          1.4944255839       -1.3768166470       -0.1097104239
 N          3.2509047358        0.1690734814        1.0685882442
 S          3.6808456780        0.3014393595       -0.5592896794
 O          3.0662601642        1.4701016974       -1.1504246265
 O          3.4466079006       -0.9558313031       -1.2206899680
 C          5.4362149758        0.5609153096       -0.3758627343
 C          5.9510542699        1.8413367148       -0.4451954210
 C          7.3139465557        2.0265826543       -0.2725321971
 C          8.1338279835        0.9345291811       -0.0317854148
 C          7.6026505976       -0.3451661172        0.0338388892
 C          6.2412870557       -0.5370247643       -0.1389540430
 H          5.7848700825       -1.5124061771       -0.1048242927
 H          8.2436358210       -1.1921815499        0.2181332741
 H          9.1939377184        1.0811681918        0.1023036474
 H          7.7301508328        3.0196677112       -0.3266901511
 H          5.2771246501        2.6592926574       -0.6438746465
 H          3.7003741853        0.9124019389        1.5882300430
 H          2.0314372367        1.3942315071        3.0834633762
 H         -0.3066775077        1.0359156747        3.7807276269
 H         -1.7556316330       -0.5071259989        2.5130616752
 H         -1.4165628363       -2.8110998098        1.0177852244
 C         -0.5681738014       -2.5128159381       -0.9220083535
 C          0.2947612809       -3.7370790231       -0.8902135890
 C         -1.0837118071       -3.8065799705       -1.4736495620
 H         -1.1892501597       -3.9051366439       -2.5436498013
 H         -1.8547704617       -4.3110384859       -0.9092629853
 H          1.1424885309       -3.7830224417       -1.5574602652
 H          0.4622365145       -4.2040218432        0.0686637022
 H         -0.3166823939       -1.7312849788       -1.6314233955
