  62
        -98.93221410
 C          2.5915527064        1.2295533842        0.1891431404
 C          3.0084796723        0.2465163098        1.1192752497
 C          4.2088066263       -0.5429225622        0.7859246514
 C          4.8471641923       -0.2837937437       -0.3702110505
 C          6.0587712050       -0.9696111897       -0.9436321753
 C          5.7321173912       -2.3474173171       -1.5413227439
 C          4.8173236918       -3.2184423141       -0.6844794055
 H          3.8785701332       -2.6893901141       -0.5101355001
 H          4.5804474668       -4.1170661435       -1.2602223754
 C          5.4065272632       -3.6625760714        0.6522951181
 H          6.3304361799       -4.2161826217        0.4706006319
 H          4.6910700722       -4.3516191893        1.1083663835
 C          5.6976595532       -2.5478822471        1.6596477705
 H          6.6160997512       -2.0228107719        1.4112249029
 H          5.8655125990       -3.0228502327        2.6307614797
 C          4.5588770917       -1.5515922646        1.8533476682
 H          3.6339068503       -2.0994371989        2.0667856951
 H          4.7589582463       -0.9642121152        2.7577712924
 H          6.6700573721       -2.8732311906       -1.7280039156
 H          5.2364526563       -2.1894593550       -2.5022551399
 H          6.8355327902       -1.0491431592       -0.1888984727
 H          6.4347110555       -0.3250451548       -1.7412951582
 O          4.4138468900        0.6748827282       -1.2355393585
 C          3.2860079468        1.4453974072       -1.0013057916
 O          3.0365781674        2.2573369614       -1.9102676384
 O          2.3981715419        0.0324228290        2.2027480070
 C          1.3526117429        2.0267683556        0.5545310282
 C          0.1134205150        1.3622763634        0.0111606214
 C         -0.0017567996        1.0391771754       -1.3375455767
 C         -1.1481961387        0.4308162645       -1.8149710928
 C         -2.1954437695        0.1247412835       -0.9628438773
 C         -2.0899597082        0.4393189273        0.3849590668
 C         -0.9397691847        1.0580759040        0.8605412426
 H         -0.8555857790        1.2907633725        1.9136708914
 N         -3.1350664064        0.1096611608        1.2600854527
 S         -4.7191187307        0.4341185856        0.8171553428
 O         -4.7974917359        1.5783739227       -0.0603847379
 O         -5.4431727638        0.5295152933        2.0655038468
 C         -5.2346750932       -1.0367308478       -0.0432105531
 C         -5.7879326796       -0.9374448073       -1.3046960044
 C         -6.1938206540       -2.0944635589       -1.9515235654
 C         -6.0410358805       -3.3232957499       -1.3280914029
 C         -5.4860345858       -3.4055883434       -0.0595879953
 C         -5.0794950471       -2.2528005778        0.5928912407
 H         -4.6466393984       -2.2749722847        1.5791310502
 H         -5.3685168539       -4.3631138186        0.4218239861
 H         -6.3561189475       -4.2224397811       -1.8337010002
 H         -6.6258020969       -2.0326079812       -2.9374652734
 H         -5.8822508954        0.0388039928       -1.7533115789
 H         -2.9625433988        0.3533261148        2.2242787613
 H         -3.0882881957       -0.3516157818       -1.3332214752
 H         -1.2267534148        0.1880699294       -2.8639397755
 H          0.8152411956        1.2735732168       -2.0034915380
 H          1.3004156647        1.9673229924        1.6535956470
 C          1.4511868740        3.5011801401        0.1899284723
 C          0.6344493954        4.1554520044       -0.8792988654
 C          0.3400271427        4.4388433616        0.5613054418
 H          0.5906556223        5.4082718149        0.9645240455
 H         -0.5575249424        4.0056398337        0.9781435644
 H          1.1129637968        4.9177118824       -1.4747806734
 H         -0.0684030779        3.5522835445       -1.4316956301
 H          2.4618128328        3.8776159231        0.3121432339
