  62
        -98.94610661
 C         -1.2041714894       -1.2882493801       -0.7504422991
 C         -2.5483468095       -1.3886353296       -0.3061110194
 C         -3.4203808793       -0.2467510297       -0.5948821304
 C         -2.9256022590        0.8161195198       -1.2540219509
 C         -3.6870422987        2.0585329997       -1.6296007619
 C         -3.7747350689        3.0961471604       -0.5020064526
 C         -4.7236223593        2.7344938712        0.6415524074
 H         -4.8626566494        3.6373917116        1.2395498668
 H         -5.6969386892        2.4607712711        0.2327051273
 C         -4.2126768497        1.6126991617        1.5566984582
 H         -3.1365498597        1.4848878715        1.4115436486
 H         -4.3585233100        1.9002336524        2.6006716980
 C         -4.9066910598        0.2650147717        1.3571106289
 H         -4.4368360901       -0.4624033579        2.0240310094
 H         -5.9589091899        0.3505028920        1.6378955385
 C         -4.8252913894       -0.2823688692       -0.0734829908
 H         -5.4887495192        0.2801864105       -0.7300333413
 H         -5.1473450196       -1.3265652191       -0.0588471002
 H         -2.7712231090        3.2634435005       -0.1019318024
 H         -4.1168064187        4.0338937502       -0.9465084532
 H         -4.6917930186        1.7892119196       -1.9570443520
 H         -3.1548229284        2.5079891291       -2.4706816920
 O         -1.6407058788        0.8680086394       -1.6870337006
 C         -0.7410995690       -0.1589605905       -1.4278037297
 O          0.4004996211        0.0653863591       -1.8745201495
 O         -3.0017985198       -2.3977064392        0.2990164311
 C         -0.2901353996       -2.4498872599       -0.3948748981
 C          0.4336086800       -2.1440758792        0.8950042219
 C          0.2666114296       -2.9396199185        2.0221893923
 C          0.9043194993       -2.6189183679        3.2078616523
 C          1.7024304194       -1.4927081379        3.2957153419
 C          1.8750819398       -0.6910473686        2.1724383414
 C          1.2611247102       -1.0332444593        0.9776807315
 H          1.3936851105       -0.4039559898        0.1131148811
 N          2.6809719500        0.4547049113        2.2167518610
 S          2.2938403304        1.7848645208        1.2749891400
 O          3.0088354504        2.8797575611        1.9032124796
 O          0.8637997305        1.9657862909        1.1658171795
 C          3.0445038008        1.4655299297       -0.3058616095
 C          4.1500325308        0.6417731495       -0.3780455787
 C          4.7533893611        0.4401276687       -1.6085837384
 C          4.2490525315        1.0672751481       -2.7373960689
 C          3.1431829316        1.8967287683       -2.6455857698
 C          2.5327597612        2.1001537291       -1.4184847501
 H          1.6577857813        2.7210956993       -1.3099515207
 H          2.7450543219        2.3782404878       -3.5243132102
 H          4.7169483918        0.9053681374       -3.6959039787
 H          5.6113784810       -0.2087151715       -1.6837222278
 H          4.5114687504        0.1625134100        0.5165569117
 H          3.0199605397        0.7168834518        3.1306085709
 H          2.1834665192       -1.2295494374        4.2254126119
 H          0.7661373790       -3.2429991773        4.0777448927
 H         -0.3841851905       -3.8000127185        1.9704937827
 H         -0.9613552098       -3.2997261297       -0.2093800078
 C          0.6858206007       -2.8360430807       -1.4875408676
 C          1.2621457905       -4.2191609908       -1.4883831966
 C          0.2638858408       -3.8220677513       -2.5333654971
 H          0.6042821412       -3.6723295420       -3.5467383771
 H         -0.7356835892       -4.2263222212       -2.4647657472
 H          2.2921201806       -4.3457393211       -1.7834995762
 H          0.9393729402       -4.8966161303       -0.7124335162
 H          1.3251866208       -2.0218426510       -1.8017618679
