  62
        -98.94468646
 C         -2.0126455694       -0.7520399000        0.5617358689
 C         -1.9603419333       -0.0512586555       -0.6672825340
 C         -2.0009640320        1.4115295318       -0.5683011476
 C         -2.0241077031        1.9994657393        0.6410725452
 C         -2.0142969960        3.4809355466        0.9061762120
 C         -3.3969130923        4.1432586954        0.8274119904
 C         -3.9707801748        4.2868723515       -0.5826827908
 H         -4.8310097204        4.9552797775       -0.5112853398
 H         -3.2337009480        4.7699871997       -1.2246404139
 C         -4.4232908492        2.9655432009       -1.2194262684
 H         -5.4074676616        3.0983754895       -1.6740157588
 H         -4.5277174978        2.2042376319       -0.4430412083
 C         -3.4893288491        2.4344466308       -2.3068908620
 H         -3.4743255344        3.1291685268       -3.1494762563
 H         -3.8846754321        1.4798965005       -2.6628615727
 C         -2.0461341337        2.2028748998       -1.8399600455
 H         -1.5205121094        1.6240715611       -2.6034939565
 H         -1.5307023054        3.1547156367       -1.7118509201
 H         -4.0914764906        3.5726107317        1.4480754374
 H         -3.3039343180        5.1408830458        1.2627045343
 H         -1.6249085437        3.6103615115        1.9186057391
 H         -1.3313551382        3.9683439155        0.2093848948
 O         -2.0403799062        1.2900438715        1.8025094949
 C         -2.0370927923       -0.0953219507        1.7901464493
 O         -2.0600034691       -0.6201636930        2.9242221070
 H          0.4691151484       -1.1877648332        0.9582158910
 C          0.5167199344       -1.9792754039        0.2229644677
 C         -0.6364800194       -2.6805813485       -0.1059987528
 C         -0.5457633425       -3.7072476359       -1.0364150115
 C          0.6644053468       -3.9911216901       -1.6464299802
 C          1.7975730890       -3.2548616781       -1.3551913490
 C          1.7208141205       -2.2396520491       -0.4074451492
 N          2.8533900614       -1.4802400654       -0.0639197825
 S          2.6251140583        0.1369474436        0.3680870443
 O          2.2834629574        0.1979026124        1.7685881765
 O          1.7136691238        0.7856839525       -0.5469951427
 C          4.2814480190        0.7565695261        0.1329234349
 C          5.2171252675        0.5475090195        1.1285183287
 C          6.5141013793        0.9952334117        0.9335898684
 C          6.8523561465        1.6399790768       -0.2470795536
 C          5.9022401197        1.8443715257       -1.2363537417
 C          4.6034679201        1.3978239492       -1.0482716644
 H          3.8284133737        1.5404308863       -1.7843634260
 H          6.1666933344        2.3490272694       -2.1515678683
 H          7.8621390043        1.9881798186       -0.3959461025
 H          7.2544017773        0.8405110063        1.7017541412
 H          4.9035991541        0.0501707429        2.0315664934
 H          3.6099713693       -1.5833984092       -0.7267670939
 H          2.7327536605       -3.4596472824       -1.8536595500
 H          0.7205155274       -4.7858508983       -2.3748182960
 H         -1.4247652406       -4.2742240530       -1.2959921088
 C         -1.9241328768       -2.2678963417        0.5669732549
 H         -1.8731210432       -2.5681564509        1.6244210502
 C         -3.1595267941       -2.8794028563       -0.0597594018
 C         -3.6414416598       -4.2287386279        0.3789350555
 C         -4.4041119870       -2.9983791041        0.7657201776
 H         -5.3562546301       -2.8087806323        0.2934922610
 H         -4.3501451415       -2.6607810390        1.7908290217
 H         -3.0770048180       -4.7353823000        1.1471193691
 H         -4.0752500342       -4.8863635295       -0.3591043311
 H         -3.2734377124       -2.6049066290       -1.1021213794
 O         -1.8856907147       -0.6177307114       -1.7893405581
