  62
        -98.94074042
 C         -1.1201024090       -1.4313004114        0.1087507075
 C         -1.6307619882       -0.5498844454        1.0886607719
 C         -2.5174919404        0.5334316028        0.6249620265
 C         -2.7603805542        0.6465605504       -0.6941953392
 C         -3.6783664406        1.6122594447       -1.3964765716
 C         -5.1629021709        1.2529115600       -1.2226584712
 C         -5.5737938134        0.8760755844        0.1979944606
 H         -6.6181558116        0.5545200788        0.1666124734
 H         -4.9822385656        0.0203121749        0.5279439220
 C         -5.4616781608        1.9983661789        1.2271883354
 H         -6.0735707233        2.8438662901        0.9051110052
 H         -5.8828941593        1.6228207919        2.1633222581
 C         -4.0450654065        2.5017189231        1.5135965494
 H         -4.0897726295        3.0954535389        2.4313498164
 H         -3.7010706182        3.1718545298        0.7303193825
 C         -3.0186812850        1.3995187076        1.7554347044
 H         -3.4029927265        0.7139008733        2.5193025794
 H         -2.1218844168        1.8482201000        2.2003251265
 H         -5.3822598392        0.3995639815       -1.8689355032
 H         -5.7634056088        2.0974524380       -1.5650516732
 H         -3.4878407150        2.6281042208       -1.0630227939
 H         -3.4371715992        1.5580062161       -2.4603101326
 O         -2.1881912360       -0.1842383174       -1.6097659968
 C         -1.3454271083       -1.2191154961       -1.2514597378
 O         -0.8806828286       -1.8559066324       -2.2139754701
 O         -1.3657015218       -0.6630870369        2.3178376328
 C         -0.2276921623       -2.5759209108        0.5627602450
 C          1.1983812154       -2.2012109963        0.2468921066
 C          1.9474635359       -2.7778300217       -0.7693135026
 C          3.2274997193       -2.3219160779       -1.0389067194
 C          3.7852394004       -1.2904101782       -0.3051798077
 C          3.0423996899       -0.7108675116        0.7154135755
 C          1.7633227431       -1.1668861972        0.9845837189
 H          1.1799941810       -0.7075932498        1.7724547395
 N          3.5905779180        0.3645536225        1.4539016903
 S          3.8342297141        1.7577799391        0.5545385045
 O          4.9642836849        1.5585189852       -0.3157694464
 O          3.9496131132        2.8309128187        1.5156284606
 C          2.3447451319        1.9415445553       -0.4099070565
 C          1.2468255676        2.5368715047        0.1781675725
 C          0.0723836366        2.6429048089       -0.5481441255
 C          0.0144929012        2.1446449849       -1.8405183911
 C          1.1201266506        1.5344381731       -2.4108625092
 C          2.2989167594        1.4297286118       -1.6906809988
 H          3.1819895200        0.9694261867       -2.1024789008
 H          1.0627196630        1.1335771776       -3.4100693524
 H         -0.8989068259        2.2273444115       -2.4074201587
 H         -0.7934331450        3.1075316015       -0.1041291912
 H          1.3335926454        2.9213038507        1.1821640787
 H          3.0379011058        0.5932847490        2.2691307574
 H          4.7732689663       -0.9132185156       -0.5142983507
 H          3.7978829222       -2.7756248736       -1.8351173386
 H          1.5230684475       -3.5716126079       -1.3611744308
 H         -0.3303089538       -2.6061491680        1.6567576798
 C         -0.6604833075       -3.9094680488       -0.0038068453
 C         -0.1614673142       -5.1712895767        0.6324616841
 C         -1.5966843535       -4.7701862471        0.7883581619
 H         -2.3509416097       -5.3329084035        0.2591198295
 H         -1.9229012934       -4.4026883851        1.7505117096
 H          0.0709202985       -6.0128929548       -0.0018156935
 H          0.4881876267       -5.0740191543        1.4892434307
 H         -0.7892340141       -3.8974873145       -1.0788129842
