  62
        -98.94894004
 C         -0.8889685531       -1.3513793199        0.1956628182
 C         -1.4598337363       -0.3032468675        0.9532708101
 C         -2.2792176816        0.6541093226        0.2024505704
 C         -2.3857960561        0.5355629409       -1.1338421505
 C         -3.1320767381        1.4725886566       -2.0453423752
 C         -4.6315803103        1.1691334394       -2.1671478763
 C         -5.4651619564        1.5224723919       -0.9348784448
 H         -5.2694130464        2.5570615253       -0.6514053560
 H         -6.5145375647        1.4576889064       -1.2290488911
 C         -5.2309237700        0.6015797836        0.2705743126
 H         -4.7372450091       -0.3143473358       -0.0622995518
 H         -6.1929354752        0.3097230179        0.6976002408
 C         -4.4073907002        1.2268636099        1.3961631392
 H         -4.2798245609        0.4776017542        2.1813931948
 H         -4.9527460097        2.0720027008        1.8217076038
 C         -3.0129658498        1.7099281686        0.9735228486
 H         -3.0917693133        2.6268460913        0.3889579856
 H         -2.4375403011        1.9135606784        1.8793823851
 H         -4.7544178775        0.1089937353       -2.4006851508
 H         -5.0120936999        1.7424344265       -3.0157279712
 H         -2.6741698751        1.3708161087       -3.0320652227
 H         -2.9934420122        2.5002536967       -1.7069125789
 O         -1.7934869783       -0.4687621024       -1.8319825895
 C         -1.0408682777       -1.4390828289       -1.1888728125
 O         -0.5775541300       -2.3153080551       -1.9444324344
 O         -1.2850340904       -0.1673160788        2.1944319798
 C         -0.0078183482       -2.3702113843        0.8961972418
 C          1.3754783905       -2.3199988990        0.2961162521
 C          2.1094779148       -3.4456938884       -0.0524315153
 C          3.3496643725       -3.3111433147       -0.6532410519
 C          3.8715563399       -2.0622000964       -0.9343503253
 C          3.1511835914       -0.9289843995       -0.5723765385
 C          1.9325016548       -1.0677070073        0.0681424355
 H          1.3780877157       -0.1845364099        0.3503865706
 N          3.6433399141        0.3589422215       -0.8285851922
 S          2.5817004997        1.6081831723       -1.1667153436
 O          1.4072463622        1.1616287632       -1.8791645427
 O          3.4009412928        2.5890628998       -1.8501630501
 C          2.1459150921        2.2555400143        0.4326513425
 C          0.8287395238        2.5601601397        0.7101988498
 C          0.5132471449        3.1034857675        1.9454050409
 C          1.5142404325        3.3268724111        2.8774039541
 C          2.8331648887        3.0157435338        2.5828340907
 C          3.1563067669        2.4789882878        1.3473963887
 H          4.1688266166        2.2284022049        1.0788008417
 H          3.6083925178        3.1899514094        3.3114715736
 H          1.2618280666        3.7446279043        3.8392028923
 H         -0.5125061513        3.3427424243        2.1748219650
 H          0.0751205332        2.3512295162       -0.0345534742
 H          4.4722515402        0.3964176197       -1.4036489863
 H          4.8225776740       -1.9604167273       -1.4344567555
 H          3.9083836736       -4.1933324925       -0.9269902446
 H          1.7051699149       -4.4278463389        0.1299140873
 H          0.0529049951       -2.0355275395        1.9427703301
 C         -0.6381349715       -3.7461082570        0.8575148174
 C         -0.3706414993       -4.7324631336        1.9540277963
 C         -1.7134629239       -4.0765619352        1.8474522008
 H         -2.5544921194       -4.6675013858        1.5170245515
 H         -1.9715425661       -3.3154347792        2.5691983461
 H         -0.2915991374       -5.7783226110        1.6983885734
 H          0.2810980382       -4.4224838848        2.7565947908
 H         -0.7560940145       -4.1192599462       -0.1538507410
