  62
        -98.93606378
 C         -2.4844758772        0.1335817433        0.5988410394
 C         -2.1848231473        0.6539515624       -0.6838207893
 C         -1.7725269936        2.0653215284       -0.7195837590
 C         -1.6963068247        2.7620516295        0.4279107363
 C         -1.2930326106        4.2045061144        0.5363230330
 C          0.2123233417        4.3629564314        0.7837565872
 C          1.0890855705        3.5666264378       -0.1825840965
 H          2.1288976517        3.8105501343        0.0490834473
 H          0.9643838648        2.4983547650        0.0103892345
 C          0.8175959300        3.8417208168       -1.6682318320
 H          1.7755483668        3.9399066913       -2.1829871651
 H          0.2883449967        4.7890661125       -1.7822843605
 C          0.0414950641        2.7305561971       -2.3788835358
 H          0.4870788754        1.7643826826       -2.1293552090
 H          0.1417449502        2.8778709057       -3.4578396746
 C         -1.4582576954        2.6588589525       -2.0636213758
 H         -1.9067641605        3.6501641072       -2.1638005724
 H         -1.9226648215        1.9939014244       -2.7976790422
 H          0.4606588835        5.4241687987        0.7132076196
 H          0.4346467432        4.0270269311        1.7996102886
 H         -1.5764079287        4.7202844994       -0.3793919452
 H         -1.8364009016        4.6459966402        1.3741432072
 O         -1.9750039355        2.2212748362        1.6438993627
 C         -2.3571553719        0.8956836084        1.7579593380
 O         -2.5681451490        0.5197587778        2.9317312482
 O         -2.2742101159       -0.0133677263       -1.7457088714
 C         -2.9156253941       -1.3209658296        0.7641967968
 C         -1.9218956965       -2.1835773919        0.0215138937
 C         -2.1630296720       -3.1239675330       -0.9710239268
 C         -1.1131472879       -3.8010943646       -1.5716779833
 C          0.1986113018       -3.5486062964       -1.2227218770
 C          0.4557147757       -2.6163760401       -0.2239713944
 C         -0.5970502442       -1.9744876658        0.4008817779
 H         -0.3776272397       -1.2543132023        1.1778220716
 N          1.7716179615       -2.3093359207        0.1740411361
 S          2.0788284263       -0.6730173410        0.4828775991
 O          1.7600293768       -0.3936584244        1.8622802561
 O          1.4294987919        0.1478944722       -0.5107720683
 C          3.8484803117       -0.6216919749        0.2672893876
 C          4.3818817224       -0.0572968914       -0.8753537086
 C          5.7586521421       -0.0487059178       -1.0385744317
 C          6.5727818015       -0.6048952299       -0.0637059039
 C          6.0223300476       -1.1673783627        1.0787617459
 C          4.6472478235       -1.1772072793        1.2493128325
 H          4.1739106658       -1.5925120599        2.1237073245
 H          6.6584432790       -1.5968429604        1.8356485419
 H          7.6434016633       -0.5978366133       -0.1934867015
 H          6.1888058484        0.3914907736       -1.9236135958
 H          3.7084826958        0.3674489630       -1.6024641230
 H          2.4632208465       -2.6949510717       -0.4557134360
 H          1.0127398827       -4.0570559215       -1.7165057339
 H         -1.3270162182       -4.5234602185       -2.3451267485
 H         -3.1597554404       -3.3282372069       -1.3162638808
 H         -2.7749928907       -1.5405528384        1.8370344220
 C         -4.4147936843       -1.4047312243        0.5196084296
 C         -5.0669052113       -1.5637856322       -0.8175740555
 C         -5.1867320295       -2.6520802047        0.2093142026
 H         -6.1422543326       -2.7771400159        0.6973879664
 H         -4.6495076962       -3.5758260056        0.0735884207
 H         -5.9388443764       -0.9599054340       -1.0242737423
 H         -4.4270515696       -1.6941595972       -1.6748506648
 H         -4.9075022514       -0.7119231462        1.1998825827
