  62
        -98.93881015
 C         -1.9078957903       -0.6287577999       -0.5086572497
 C         -2.9711020703       -1.3634743096        0.0650328908
 C         -4.3241918903       -0.8086254498       -0.1117207196
 C         -4.4733328004        0.3372219097       -0.7989300304
 C         -5.7477980704        1.0946008295       -1.0516364609
 C         -5.9603238805        2.1764776602        0.0208819284
 C         -6.6888342505        1.7031007710        1.2781587987
 H         -6.6557376206        2.5221639415        2.0002912081
 H         -7.7383357805        1.5212423208        1.0372844688
 C         -6.1121339604        0.4455611115        1.9335647495
 H         -5.0224233904        0.5066175616        1.9487619895
 H         -6.4492852405        0.4244314522        2.9717220996
 C         -6.5536951404       -0.8523661790        1.2409879804
 H         -6.9584899103       -1.5402829485        1.9862121209
 H         -7.3682370804       -0.6293281795        0.5522652402
 C         -5.4425359403       -1.6090296594        0.4986877709
 H         -5.8939096403       -2.2293402800       -0.2828608086
 H         -4.9446864103       -2.2951500189        1.1911153714
 H         -4.9795291305        2.5766907504        0.2908631781
 H         -6.5369233005        2.9942810799       -0.4161904822
 H         -5.6299216404        1.5845556488       -2.0204503212
 H         -6.5957191104        0.4180944194       -1.1024068404
 O         -3.4205322804        1.0140377394       -1.3356509408
 C         -2.1182978304        0.5617655996       -1.2034993005
 O         -1.2646026104        1.2926314093       -1.7402876710
 O         -2.7971835103       -2.4347426192        0.7067942215
 C         -0.4900741403       -1.1522498597       -0.3534943193
 C          0.3328622796       -0.1398721992        0.4029125000
 C         -0.0584561004        0.1913884117        1.6989758198
 C          0.6304081495        1.1423743622        2.4245303692
 C          1.7321407595        1.7773328819        1.8769559288
 C          2.1331953795        1.4535886910        0.5869766490
 C          1.4386304296        0.4937680705       -0.1396087104
 H          1.7592346296        0.2804922499       -1.1447093502
 N          3.2322643795        2.1034307007        0.0044570786
 S          4.3809438196        1.2601618802       -0.8656018009
 O          5.4847724895        2.1859532802       -0.9932917815
 O          3.8225303296        0.7589097893       -2.0945865505
 C          4.8460947196       -0.0885889291        0.2044488501
 C          5.7708562596        0.1557228217        1.2014058099
 C          6.0981418496       -0.8656091977        2.0779813406
 C          5.4914569197       -2.1060207679        1.9487968414
 C          4.5649413697       -2.3346192186        0.9434829816
 C          4.2357810097       -1.3177812492        0.0607809809
 H          3.5233523997       -1.4599991198       -0.7345566590
 H          4.0956993498       -3.3002320487        0.8420765322
 H          5.7437863197       -2.9006304574        2.6331199620
 H          6.8218146396       -0.6923860172        2.8580951305
 H          6.2271420495        1.1306330117        1.2591541893
 H          3.6686277194        2.7961221211        0.5949046281
 H          2.2678852794        2.5280775423        2.4378002783
 H          0.3108868095        1.3923497429        3.4249808890
 H         -0.9220267704       -0.3028839681        2.1227643801
 H         -0.5821995803       -2.0548454393        0.2680320713
 C          0.0854244697       -1.5447581906       -1.6966337290
 C          1.1519552498       -2.5943106506       -1.7765005983
 C         -0.2354502902       -2.8974794910       -2.2553778381
 H         -0.4090961302       -2.9880701917       -3.3171618381
 H         -0.8532185802       -3.5488538006       -1.6545183777
 H          1.9348423298       -2.4772112011       -2.5115458084
 H          1.4720085098       -3.0489482200       -0.8509833980
 H          0.1292050397       -0.7181552611       -2.3971943196
