  62
        -98.93965300
 C         -2.1521862352       -0.7535727928        0.8168649521
 C         -2.8950858078        0.4066812897        1.1566807140
 C         -4.3080491306        0.4148241438        0.7652633407
 C         -4.8311777975       -0.6575000327        0.1441282485
 C         -6.2607709875       -0.8176750276       -0.2968610525
 C         -6.5665344840       -0.1858604163       -1.6617393568
 C         -6.6129477445        1.3425828760       -1.6749482356
 H         -7.0485175026        1.6414026972       -2.6304656572
 H         -7.2830405622        1.6918414318       -0.8887446122
 C         -5.2433059489        2.0196227313       -1.5246769817
 H         -5.1481384712        2.8179063106       -2.2642066340
 H         -4.4525260604        1.2952599656       -1.7332966993
 C         -4.9911313107        2.6428816824       -0.1515855167
 H         -5.6937184669        3.4626699142        0.0141068903
 H         -3.9802021843        3.0588447675       -0.1446662977
 C         -5.1051721916        1.6581684225        1.0195624740
 H         -4.6970191395        2.1377803646        1.9127139145
 H         -6.1506033139        1.4100164269        1.2022283718
 H         -7.5413095815       -0.5601576878       -1.9828458147
 H         -5.8228429138       -0.5339709118       -2.3821834996
 H         -6.9261683269       -0.3973909096        0.4577882436
 H         -6.4462919187       -1.8917172542       -0.3654336238
 O         -4.0949348753       -1.7605080874       -0.1452534987
 C         -2.7368340634       -1.8319735273        0.1506698566
 O         -2.2032983505       -2.8906793925       -0.2257516913
 O         -2.3969322400        1.3890728410        1.7701921677
 C         -0.6867401679       -0.7563045062        1.2094288182
 C          0.1794167037       -0.1905989528        0.1118729903
 C          0.0152181766       -0.5790163650       -1.2146442335
 C          0.8203372179       -0.0503806608       -2.2067352023
 C          1.8196300664        0.8551409061       -1.8937132182
 C          1.9979468188        1.2422959930       -0.5718093843
 C          1.1710965007        0.7296669455        0.4188670274
 H          1.3166391027        1.0546888012        1.4377013012
 N          3.0226203235        2.1402730872       -0.2051127657
 S          4.2448460941        1.5193724965        0.7597736343
 O          3.6841592618        1.0284382253        1.9907570817
 O          5.2269017222        2.5738433863        0.8649388826
 C          4.9054887937        0.1693214699       -0.2020340310
 C          4.2645262792       -1.0529571759       -0.1641400024
 C          4.7288019383       -2.0777851325       -0.9734198535
 C          5.8189420079       -1.8633712620       -1.8029522241
 C          6.4530555670       -0.6302232582       -1.8283566997
 C          5.9902128770        0.3999141172       -1.0255542027
 H          6.4543204306        1.3729270112       -1.0104509603
 H          7.3023121088       -0.4679490594       -2.4722924689
 H          6.1766342619       -2.6635555374       -2.4315267506
 H          4.2342238364       -3.0357530846       -0.9518968865
 H          3.4237566835       -1.1872228535        0.4961323290
 H          3.4339744827        2.6265830091       -0.9902263063
 H          2.4534498322        1.2620482995       -2.6672293237
 H          0.6764632900       -0.3556668293       -3.2319385409
 H         -0.7455580731       -1.3059359802       -1.4560169429
 H         -0.6234694087       -0.0603680613        2.0616398240
 C         -0.1906781185       -2.1129885054        1.6934509594
 C          0.8400270928       -2.9142002757        0.9614557246
 C          1.1959933698       -2.2416233464        2.2517966653
 H          1.3427405861       -2.8523571916        3.1299831065
 H          1.8306991494       -1.3667967212        2.2216018713
 H          0.7228825867       -3.9868994423        0.9510182939
 H          1.2365946960       -2.5119133720        0.0421853974
 H         -0.9708477296       -2.6757057001        2.1950253265
