  62
        -98.94094679
 C         -2.3080444402       -0.8464159697       -0.1607889087
 C         -3.5990730903       -1.2143164592        0.2885815115
 C         -4.7153723502       -0.4545870196       -0.2842663794
 C         -4.4704488700        0.5076257295       -1.1924364303
 C         -5.5043637298        1.3575966289       -1.8802286612
 C         -5.9487288298        2.5799200797       -1.0648600924
 C         -6.8421974000        2.2710488909        0.1372200477
 H         -7.2532200600        3.2216718213        0.4827330268
 H         -7.6799505000        1.6515154107       -0.1841042017
 C         -6.1171127002        1.5928856320        1.3080127385
 H         -5.0384976002        1.7239131918        1.1928508285
 H         -6.4003438402        2.0806394129        2.2434804480
 C         -6.4211135603        0.1028478222        1.4640297699
 H         -7.4767363004       -0.0320232875        1.7095225399
 H         -5.8293586904       -0.2824743971        2.2982582203
 C         -6.0964041302       -0.7406213690        0.2241363307
 H         -6.8343394001       -0.5612279497       -0.5572263695
 H         -6.1337289804       -1.7952944788        0.5072364918
 H         -6.4996130497        3.2386666591       -1.7401396731
 H         -5.0585480998        3.1173542900       -0.7296134129
 H         -5.0486910997        1.7097861679       -2.8081241415
 H         -6.3737418998        0.7484232587       -2.1289021207
 O         -3.2145800299        0.8160594490       -1.6152985604
 C         -2.1032133600        0.1648214094       -1.0987780197
 O         -1.0151390099        0.5698242288       -1.5530760799
 O         -3.8065600605       -2.1294018483        1.1295342623
 C         -1.1008528803       -1.5745157193        0.4010423021
 C         -0.1561153403       -0.5887056187        1.0421995113
 C         -0.6595292404        0.3016006722        1.9880337704
 C          0.1632725096        1.2334836327        2.5884140696
 C          1.5050202697        1.2995419623        2.2555917197
 C          2.0219483397        0.4065162414        1.3252315306
 C          1.1937901997       -0.5382756591        0.7334690114
 H          1.6162470397       -1.2141487299        0.0105275821
 N          3.3967334198        0.4253326910        1.0183552707
 S          3.9260395899        0.2751447994       -0.5782074391
 O          3.4501141701        1.3855236187       -1.3745989802
 O          3.6230379399       -1.0463288711       -1.0629846178
 C          5.6839266199        0.4242521495       -0.3116600990
 C          6.3615060498       -0.6630594601        0.2066254721
 C          7.7217047298       -0.5528585199        0.4464627922
 C          8.3786508799        0.6363151497        0.1662478711
 C          7.6860938600        1.7180391593       -0.3559417200
 C          6.3247109800        1.6146429092       -0.5966035301
 H          5.7465353602        2.4264385488       -1.0081862509
 H          8.1997465501        2.6400619790       -0.5760003609
 H          9.4375543699        0.7193008098        0.3536718611
 H          8.2640431696       -1.3925240596        0.8502562730
 H          5.8107985397       -1.5684215898        0.4008432629
 H          3.8591574398        1.2225434913        1.4373691200
 H          2.1467321697        2.0361950027        2.7153970590
 H         -0.2427600404        1.9216325635        3.3147968888
 H         -1.7111561304        0.2566462726        2.2380939303
 H         -1.4976038605       -2.2343472785        1.1875243027
 C         -0.4536218403       -2.4297321304       -0.6671049070
 C          0.3021311996       -3.6663029500       -0.2858342457
 C         -1.0277696703       -3.7807400006       -0.9665919957
 H         -1.0571817903       -4.1112969116       -1.9940350054
 H         -1.8780460304       -4.0973319100       -0.3802652755
 H          1.1924704196       -3.9140949907       -0.8440649853
 H          0.3563468294       -3.9124415190        0.7638624946
 H         -0.0858421401       -1.8455898912       -1.5046684375
