  62
        -98.94007227
 C         -1.9480734896       -1.4049563012        0.0485247495
 C         -1.7630592178       -0.0783119189       -0.4125388368
 C         -2.9933821486        0.6671179702       -0.7254709469
 C         -4.1892949687        0.0719674563       -0.5710491307
 C         -5.5158357827        0.7321585784       -0.8083493753
 C         -6.0545351073        1.3725150331        0.4784997578
 C         -5.0345537477        2.2488196265        1.2058534177
 H         -5.5344317638        2.6726178117        2.0796512050
 H         -4.2218827043        1.6193492931        1.5760556249
 C         -4.4475246382        3.3822805190        0.3530639463
 H         -5.0874116817        3.5650222892       -0.5110913067
 H         -4.4378595102        4.2980535578        0.9480162099
 C         -3.0121038312        3.1441450918       -0.1198796166
 H         -2.6256194768        4.0866171565       -0.5171427419
 H         -2.3857137003        2.8692121655        0.7329588452
 C         -2.8357503835        2.0806017758       -1.2111022423
 H         -1.8104319900        2.1591008462       -1.5838002048
 H         -3.5192330083        2.2846579485       -2.0377696972
 H         -6.9341438088        1.9676253702        0.2264534856
 H         -6.3670982523        0.5757790838        1.1576294580
 H         -5.4075771008        1.4871958022       -1.5845038582
 H         -6.2222003910       -0.0271229852       -1.1484811592
 O         -4.3276800885       -1.2027892638       -0.1247978070
 C         -3.2192237968       -1.9597719705        0.2183456536
 O         -3.4902581630       -3.0943004311        0.6595243238
 O         -0.6405164156        0.4670996014       -0.5597360371
 C         -0.7727820857       -2.2839160757        0.4410271983
 C          0.2209410260       -1.4922591297        1.2570612164
 C         -0.2415046654       -0.7652852710        2.3517785437
 C          0.6198721658       -0.0028370510        3.1158424334
 C          1.9724821798        0.0339202554        2.8227317370
 C          2.4479186279       -0.7041879165        1.7495833043
 C          1.5774074276       -1.4606383449        0.9734786878
 H          1.9682865758       -2.0070637231        0.1292701874
 N          3.8316096708       -0.6810361839        1.4657262441
 S          4.4717497755        0.7358138708        0.8407340744
 O          5.9047913522        0.5444059979        0.8211209500
 O          3.9840178931        1.8481124918        1.6138644885
 C          3.8664664550        0.8111480727       -0.8360992390
 C          4.7280863341        0.5043285959       -1.8719172282
 C          4.2441112694        0.5032443900       -3.1697874598
 C          2.9095849880        0.7969245167       -3.4083979706
 C          2.0586270093        1.0987122156       -2.3570098267
 C          2.5365251207        1.1072452687       -1.0562818451
 H          1.8799483864        1.3256048390       -0.2298323823
 H          1.0152728756        1.3121666258       -2.5252085152
 H          2.5292916566        0.7884758338       -4.4179438929
 H          4.9048328011        0.2694814571       -3.9892225792
 H          5.7564690634        0.2795278758       -1.6386745601
 H          4.1337247091       -1.4546534627        0.8891956125
 H          2.6582815311        0.6347060734        3.3971495931
 H          0.2378760217        0.5662044341        3.9504393187
 H         -1.2977832198       -0.7926393877        2.5859305677
 H         -1.2051737532       -3.0547596099        1.1006649361
 C         -0.1363271796       -3.0219225994       -0.7293893794
 C         -0.8754515019       -3.2325266578       -2.0163320575
 C          0.2987484427       -2.3040706017       -1.9712311789
 H          1.2155273851       -2.6127839377       -2.4525862564
 H          0.1181387115       -1.2422255372       -2.0147052827
 H         -0.7650438970       -4.1829185715       -2.5168664887
 H         -1.8644658691       -2.8069474197       -2.1050885900
 H          0.4848138145       -3.8491351429       -0.3992009278
