  62
        -98.92941403
 C         -2.3303699861       -1.2108642265        0.1445978745
 C         -2.4690749357        0.0743712064       -0.4337292730
 C         -3.8518119844        0.5296128511       -0.6691728539
 C         -4.8785009332       -0.2687735283       -0.3280399908
 C         -6.3351897465        0.0816313264       -0.4392331981
 C         -6.7416213416        1.0182500975        0.7164297167
 C         -7.1507361212        2.4234515959        0.2744923359
 H         -8.1537000167        2.3822546414       -0.1554603408
 H         -7.2014358248        3.0459500189        1.1702941784
 C         -6.2299882424        3.0957051719       -0.7485345061
 H         -6.4894459946        4.1564239923       -0.7607324106
 H         -6.4469733289        2.7113190641       -1.7462339414
 C         -4.7240910482        2.9605447071       -0.4876426445
 H         -4.2485329176        3.9101304253       -0.7412048772
 H         -4.5302882013        2.7819471821        0.5702091533
 C         -4.0232019006        1.8729296659       -1.3232580198
 H         -4.5448827285        1.7511189975       -2.2767638283
 H         -3.0049749119        2.2060697883       -1.5457334187
 H         -5.9038978507        1.0840064980        1.4138807462
 H         -7.5738499767        0.5768494472        1.2667488862
 H         -6.5275709508        0.5527419436       -1.4005120694
 H         -6.8975202967       -0.8509058317       -0.3878379294
 O         -4.7042799812       -1.4871868804        0.2481125653
 C         -3.4375520651       -1.9812284803        0.5082672617
 O         -3.4287183388       -3.0974201160        1.0645027620
 H          1.4540701014       -0.7920080677       -0.4537984512
 C          1.1424122273       -0.3939301763        0.4973091350
 C         -0.0586628884       -0.7794081750        1.0689372922
 C         -0.4322466912       -0.2081101098        2.2833505850
 C          0.3751995890        0.7240539671        2.9045683143
 C          1.5854904742        1.0895066052        2.3413866822
 C          1.9646158796        0.5297122605        1.1279124109
 N          3.1753763561        0.8924233518        0.5164147676
 S          4.0266061253       -0.2938638552       -0.3291275239
 O          3.5434884182       -0.3479689519       -1.6858709086
 O          4.0027426685       -1.5388215724        0.4061855641
 C          5.6689735301        0.4025463912       -0.3062787610
 C          6.5744333173       -0.0290858246        0.6445831082
 C          7.8397592892        0.5361800055        0.6711267431
 C          8.1753834666        1.5201697664       -0.2465646006
 C          7.2560485318        1.9429587035       -1.1953952470
 C          5.9896765247        1.3811307024       -1.2284012966
 H          5.2460531481        1.6704495269       -1.9527224697
 H          7.5216019238        2.7062504064       -1.9089320526
 H          9.1607170284        1.9582429479       -0.2244201018
 H          8.5576086848        0.2069092249        1.4049949009
 H          6.2717251242       -0.8029219350        1.3316178940
 H          3.7779497003        1.4347050044        1.1198681716
 H          2.2228605811        1.8104842711        2.8305942048
 H          0.0672305698        1.1620154666        3.8423503370
 H         -1.3731199217       -0.5034561452        2.7291990835
 C         -0.9675025201       -1.8095465889        0.4448095210
 H         -1.1587729620       -2.5855236614        1.2058675678
 C         -0.3290955088       -2.5184516536       -0.7405471629
 C         -1.1640245845       -3.1886984940       -1.7891045451
 C         -0.3782996732       -1.9596475106       -2.1292480516
 H          0.5008062717       -2.0596319304       -2.7498974364
 H         -0.9075675535       -1.0312054161       -2.2748380398
 H         -0.8307809668       -4.1391822309       -2.1777832616
 H         -2.2376684929       -3.1029581029       -1.7038939060
 H          0.5871214895       -3.0302606213       -0.4576745861
 O         -1.5002048208        0.8143909084       -0.7445444100
