  62
        -98.93469164
 C         -1.8028196650       -0.8403839994        0.6629356330
 C         -2.1046837743        0.4002130705        0.0509361388
 C         -3.5228036964        0.8152185982        0.0703707894
 C         -4.4434190680        0.0305772772        0.6577272920
 C         -5.9347066825        0.2128174408        0.8465576166
 C         -6.7091112835        1.2346562734        0.0173651157
 C         -6.7712681044        0.9349393046       -1.4797061907
 H         -7.3796026262        0.0396955247       -1.6315634395
 H         -7.2781146005        1.7681517260       -1.9716612352
 C         -5.4261523799        0.7004009692       -2.1629020884
 H         -5.6175556782        0.5242345518       -3.2249447520
 H         -4.9663874839       -0.2069099667       -1.7655857984
 C         -4.4277008638        1.8518330822       -2.0550244317
 H         -3.5933628117        1.6267173130       -2.7249542754
 H         -4.8932496688        2.7761165399       -2.4024908795
 C         -3.8415277969        2.0922779194       -0.6519561631
 H         -2.8932955133        2.6253835102       -0.7681916287
 H         -4.4954292484        2.7188250581       -0.0500864978
 H         -6.3182181849        2.2336722879        0.1870159530
 H         -7.7344822927        1.2280126314        0.3972740072
 H         -6.3744604576       -0.7778605498        0.6934060912
 H         -6.0752735410        0.4514541634        1.9067462421
 O         -4.0979566291       -1.1392283987        1.2707885235
 C         -2.7940506574       -1.5966180431        1.2947299819
 O         -2.6457807560       -2.6753888376        1.9021440654
 H          1.2418719819        0.2160851987       -0.7334280867
 C          1.3488708551        0.3737932577        0.3285362508
 C          0.5776529405       -0.3656842515        1.2116634281
 C          0.7142263069       -0.1253317222        2.5746032244
 C          1.6050505384        0.8245726716        3.0424099951
 C          2.3707347096        1.5632189556        2.1570087246
 C          2.2255022110        1.3421931464        0.7954426843
 N          3.0222573533        2.0861661587       -0.1115909174
 S          4.5927999652        1.5190497772       -0.2337405941
 O          5.2392211703        1.6777210015        1.0436384534
 O          5.1912575334        2.2138491178       -1.3508586296
 C          4.4027071015       -0.2138811776       -0.6135380893
 C          4.2291472231       -1.1087558139        0.4234306274
 C          3.9729757398       -2.4373637141        0.1243898920
 C          3.8907101566       -2.8446060942       -1.1986452795
 C          4.0683425949       -1.9334438487       -2.2286919699
 C          4.3199882149       -0.6028153082       -1.9356548491
 H          4.4640347303        0.1382075040       -2.7057420114
 H          4.0048740948       -2.2546960365       -3.2560763697
 H          3.6852402321       -3.8787050589       -1.4276456087
 H          3.8295517174       -3.1471923204        0.9234165456
 H          4.3005450991       -0.7536127300        1.4386072405
 H          2.6128937955        2.1313625598       -1.0348794863
 H          3.0805870734        2.2990995398        2.4983818614
 H          1.7032194534        0.9925008033        4.1042575089
 H          0.1104846431       -0.6945651217        3.2682372415
 C         -0.3945915470       -1.4098581618        0.7270254828
 H         -0.4491911718       -2.2012509361        1.4909148372
 C          0.0796298134       -2.0771102956       -0.5570236114
 C         -0.8472420687       -2.9516859228       -1.3455114616
 C         -0.3720615319       -1.6526297506       -1.9203447390
 H          0.3484359869       -1.6826303143       -2.7248741427
 H         -1.0719246014       -0.8353295829       -1.9929239796
 H         -0.4635334777       -3.8719462992       -1.7585713669
 H         -1.8719053257       -3.0171883290       -1.0085204498
 H          1.1090959366       -2.4126144286       -0.4731896124
 O         -1.2527389896        1.1457403675       -0.4969040575
