  62
        -98.94611600
 C          1.7718184510        1.1565551099       -0.2802704283
 C          3.1202295310        1.3016113094        0.1265735821
 C          4.0462333209        0.2587711796       -0.3346026385
 C          3.5807910709       -0.7386361997       -1.1088722194
 C          4.4007396209       -1.8935880495       -1.6047828001
 C          4.3386415605       -3.0773220702       -0.6292897011
 C          4.6096955903       -2.6926268614        0.8251193193
 H          3.8024412603       -2.0477073616        1.1797479596
 H          4.5717102900       -3.6097301418        1.4168713286
 C          5.9558309203       -1.9915886218        1.0551481601
 H          6.4322212101       -2.4282177925        1.9355019099
 H          6.6172872905       -2.1715781712        0.2069333501
 C          5.8530837605       -0.4858903419        1.3061776213
 H          6.8228072005       -0.1349970324        1.6691043017
 H          5.1210114204       -0.2952149525        2.0949954113
 C          5.4839182809        0.3714171891        0.0886566719
 H          5.6345669910        1.4197447988        0.3626782027
 H          6.1505628610        0.1356074296       -0.7433138982
 H          5.0635183305       -3.8274071701       -0.9505792715
 H          3.3420580305       -3.5208619600       -0.6862120816
 H          5.4316187809       -1.5708876195       -1.7364636897
 H          4.0021613510       -2.2082824986       -2.5707425705
 O          2.2823530810       -0.8360154492       -1.4915040297
 C          1.3435722811        0.0985350606       -1.0804797692
 O          0.1889204411       -0.1239360989       -1.4897772296
 O          3.5273424310        2.2539955388        0.8445962529
 C          0.7536523411        2.1884676397        0.1724084923
 C         -0.3098747392        1.5179586592        1.0060609416
 C          0.0799457505        0.8477600982        2.1643275411
 C         -0.8496364997        0.2111400577        2.9622481505
 C         -2.1904257997        0.2209381682        2.6166428102
 C         -2.5907527593        0.8871409892        1.4659413806
 C         -1.6545143891        1.5387529796        0.6723475213
 H         -1.9967990088        2.0393500104       -0.2172432283
 N         -3.9502309593        0.9335680696        1.0994353604
 S         -4.4148736190        0.3290890609       -0.3929932402
 O         -3.7798996287        1.0763744716       -1.4456389495
 O         -5.8615807390        0.3663719211       -0.3659657604
 C         -3.8675377993       -1.3686723592       -0.3700727214
 C         -4.7746214595       -2.3431988294        0.0014635977
 C         -4.3490677597       -3.6577320695        0.0959494067
 C         -3.0249653997       -3.9732450495       -0.1705792733
 C         -2.1282086595       -2.9824525593       -0.5378477923
 C         -2.5466219593       -1.6639296292       -0.6399944513
 H         -1.8596223591       -0.8845850191       -0.9309936706
 H         -1.0965710695       -3.2171151493       -0.7485161223
 H         -2.6895521499       -4.9956512796       -0.0936605140
 H         -5.0467045399       -4.4296744196        0.3784624460
 H         -5.7943577295       -2.0516631994        0.1952376677
 H         -4.5704462895        0.5657275292        1.8080465600
 H         -2.9206419699       -0.2787551522        3.2351449697
 H         -0.5305366500       -0.3011785930        3.8572015601
 H          1.1286227105        0.8372725679        2.4291071113
 H          1.3103959311        2.8803220291        0.8216978130
 C          0.2093182315        2.9648764807       -1.0070411872
 C         -0.3427915284        4.3428309706       -0.8024519362
 C          0.9671801917        4.1568416610       -1.5060689361
 H          1.0119090720        4.3305172218       -2.5708191959
 H          1.8727299617        4.4248869204       -0.9813684757
 H         -1.2020347982        4.6431223112       -1.3831710161
 H         -0.3275271885        4.7430614498        0.2000986841
 H         -0.2670722585        2.3323772013       -1.7482599078
