  62
        -98.93514598
 C         -1.7351053447       -1.6653998634        0.2693212458
 C         -2.1335513693       -0.6820599702        1.2100408459
 C         -3.0952817407        0.3337436092        0.7492786266
 C         -3.5489547238        0.2740650141       -0.5141912490
 C         -4.5181694454        1.2106086344       -1.1814274779
 C         -3.7770100346        2.3068238039       -1.9647086025
 C         -3.3856229137        3.5310225464       -1.1375586533
 H         -2.7470289464        4.1575671684       -1.7647362557
 H         -4.2826365444        4.1082887583       -0.9041710046
 C         -2.6445370812        3.2218449669        0.1661202149
 H         -2.0834866270        4.1132813855        0.4530549219
 H         -1.9181742069        2.4277056322       -0.0141429215
 C         -3.5824696925        2.8301496752        1.3187154959
 H         -4.6067501846        3.0744998058        1.0374068930
 H         -3.3493976301        3.4395909605        2.1940406282
 C         -3.5115811598        1.3601817021        1.7667056131
 H         -2.7845336750        1.2558967108        2.5782565641
 H         -4.4818165514        1.0678697837        2.1812381572
 H         -4.4122910492        2.6413055164       -2.7874020479
 H         -2.8828484741        1.8585621275       -2.4065517440
 H         -5.1967643627        1.6422544676       -0.4513491747
 H         -5.0955807690        0.6099489102       -1.8875729406
 O         -3.1232735977       -0.6691839317       -1.3958109103
 C         -2.1920275788       -1.6419197076       -1.0486246310
 O         -1.8775515152       -2.3851237735       -1.9962475167
 O         -1.7025879094       -0.6579591970        2.3929419111
 C         -0.7448260767       -2.7058497818        0.7640298251
 C          0.6685363648       -2.1964611265        0.6330339189
 C          1.5920333951       -2.3518761522        1.6596286734
 C          2.8782371327       -1.8551100134        1.5330085022
 C          3.2607206093       -1.1734065632        0.3920675194
 C          2.3380462249       -0.9975956494       -0.6316593778
 C          1.0595160388       -1.5215004543       -0.5143751103
 H          0.3522445744       -1.3949235439       -1.3226267994
 N          2.6966365150       -0.2358856063       -1.7590470145
 S          3.3373888530        1.2811608259       -1.4278831230
 O          2.8534353748        2.1446465956       -2.4826303367
 O          4.7711871008        1.1739086795       -1.3183274438
 C          2.6590896293        1.7596613708        0.1542510259
 C          3.5177505837        2.0769577832        1.1870222615
 C          2.9876118907        2.4054374814        2.4243238624
 C          1.6143363753        2.3970786265        2.6100905643
 C          0.7635647335        2.0794661143        1.5625322264
 C          1.2877573058        1.7639253946        0.3199967257
 H          0.6460213052        1.5149938048       -0.5115675273
 H         -0.3035679738        2.0575290637        1.7148440455
 H          1.1981788627        2.6349403802        3.5760840125
 H          3.6457910639        2.6561565487        3.2404379526
 H          4.5793202684        2.0526618164        1.0018407882
 H          1.9589256089       -0.1676065881       -2.4456738004
 H          4.2513672029       -0.7629434561        0.2792144555
 H          3.5866607267       -1.9881775591        2.3357306475
 H          1.2911406275       -2.8497885966        2.5691704555
 H         -0.9537738877       -2.8079828685        1.8407662649
 C         -0.9347107427       -4.0762251757        0.1309740270
 C          0.0006543766       -4.6449859863       -0.8891848770
 C         -0.0239987025       -5.2104503682        0.4972600225
 H         -0.4545989630       -6.1882862622        0.6502136725
 H          0.8160394136       -4.9903109218        1.1381355477
 H         -0.4284446259       -5.2164964370       -1.6978314442
 H          0.8531788377       -4.0534840544       -1.1852448149
 H         -1.9847130305       -4.3184991918        0.0025613119
