  62
        -98.94378622
 C         -2.6182095569       -0.0439338103       -0.4261072257
 C         -2.2513374655       -0.5945019207        0.8262262382
 C         -1.8827004261       -2.0153134938        0.8143911276
 C         -1.8885807911       -2.6992764545       -0.3440469290
 C         -1.5904125726       -4.1649948147       -0.5119897246
 C         -0.0959608014       -4.4992924107       -0.6064932396
 C          0.6740223997       -4.4018368706        0.7107848440
 H          0.1448336962       -4.9579537146        1.4854612869
 H          1.6379987542       -4.8906073999        0.5567179093
 C          0.9243636446       -2.9637531391        1.1839629952
 H          0.7960263965       -2.2707127671        0.3491170396
 H          1.9622554444       -2.8579498732        1.5107397665
 C          0.0462536644       -2.5003930410        2.3463922457
 H          0.3066652575       -3.0596928394        3.2487439459
 H          0.2691119392       -1.4443214233        2.5232616878
 C         -1.4622857601       -2.6424195422        2.1088851643
 H         -1.7483236197       -3.6944746677        2.1324889893
 H         -1.9833670192       -2.1174361854        2.9137022722
 H          0.3650169429       -3.8354197864       -1.3419090014
 H         -0.0141394837       -5.5231715610       -0.9790889022
 H         -2.0372530644       -4.7232490772        0.3115755094
 H         -2.0718962553       -4.4722027625       -1.4430794076
 O         -2.2152223111       -2.1234493300       -1.5326039434
 C         -2.5555106868       -0.7833678428       -1.6056797440
 O         -2.7882824572       -0.3735208849       -2.7634145190
 H         -0.4919551724        1.1067037114       -1.3528677736
 C         -0.5578903998        1.9125929197       -0.6308418043
 C         -1.7945179750        2.2460964538       -0.0927363775
 C         -1.8499848441        3.2818340977        0.8302218444
 C         -0.6934174577        3.9309352265        1.2298177273
 C          0.5408995554        3.5595907989        0.7260472772
 C          0.5993063909        2.5480927948       -0.2196126497
 N          1.8721799719        2.1021131475       -0.7044290153
 S          2.1728970702        0.5236764697       -0.1680087405
 O          1.6153516139       -0.4410435454       -1.0962573699
 O          1.7548795051        0.4364944120        1.2068997000
 C          3.9533941608        0.4747501455       -0.2544569829
 C          4.5863973506       -0.3206343508       -1.1885153254
 C          5.9717106537       -0.3112558550       -1.2487607287
 C          6.6947084616        0.4925414050       -0.3812096730
 C          6.0440881579        1.2866070759        0.5520464356
 C          4.6604624103        1.2795193587        0.6181863697
 H          4.1095528048        1.8727381126        1.3289955159
 H          6.6099263172        1.9095753802        1.2258234203
 H          7.7720572313        0.4994790027       -0.4318541323
 H          6.4792000431       -0.9293336714       -1.9718793025
 H          3.9826393231       -0.9307996320       -1.8412264675
 H          1.8990013087        2.0853420876       -1.7163011633
 H          1.4505819126        4.0339800098        1.0555287504
 H         -0.7542854219        4.7236617342        1.9598068484
 H         -2.7990543648        3.5670076565        1.2544533227
 C         -2.9848440700        1.4274861359       -0.5302440274
 H         -3.1621848575        1.6219888692       -1.5985371830
 C         -4.2513763268        1.7275254961        0.2416501788
 C         -5.1286249128        2.8708038758       -0.1695152881
 C         -5.5748164120        1.4604038705       -0.4077359550
 H         -6.3738025988        1.0602998292        0.1978666324
 H         -5.5622859512        1.0810574284       -1.4194155876
 H         -5.6269754498        3.4406604304        0.5998993576
 H         -4.8209464647        3.4546545854       -1.0237668474
 H         -4.1570437930        1.5034726632        1.2976618986
 O         -2.2538491819        0.0591001208        1.9017978079
