  62
        -98.94801606
 C          1.2741169174       -1.0329095279        0.0049740505
 C          1.6286672956        0.0636168663       -0.8160131845
 C          2.6790025409        0.9465740579       -0.2946222672
 C          3.1846567182        0.7122363941        0.9300560602
 C          4.2875388076        1.5055452458        1.5678021113
 C          5.6634802428        0.9050349709        1.2464739608
 C          5.8791671914        0.6144963974       -0.2387068743
 H          6.8925645860        0.2229146364       -0.3494600534
 H          5.1924029151       -0.1759055469       -0.5497009144
 C          5.6982403896        1.8320674880       -1.1558283688
 H          5.7575969007        2.7497368323       -0.5695025726
 H          6.5188170115        1.8535076031       -1.8760081079
 C          4.3982051889        1.8304644798       -1.9620337345
 H          4.4703691151        2.6095624359       -2.7255603012
 H          4.2897335496        0.8737044052       -2.4789374671
 C          3.1162039501        2.0935858587       -1.1615298394
 H          3.2302985566        3.0027265864       -0.5668728725
 H          2.3032776000        2.2561114645       -1.8757519002
 H          6.4314216871        1.5954417727        1.5999675948
 H          5.7683424367       -0.0320529960        1.7980721429
 H          4.2357977748        2.5349335990        1.2177145955
 H          4.1373819201        1.4934471418        2.6488366136
 O          2.7740563943       -0.3138640852        1.7181429328
 C          1.8108812119       -1.2116698768        1.2795138122
 O          1.5268915799       -2.1023460456        2.1028648480
 O          1.0883633904        0.2927812047       -1.9326136079
 C          0.2077269636       -1.9968747317       -0.4786382152
 C         -1.0194885692       -1.9178177683        0.3967725184
 C         -1.7878519566       -3.0232110759        0.7405009008
 C         -2.9218811963       -2.8707664695        1.5197134589
 C         -3.3314124156       -1.6202921803        1.9460838894
 C         -2.5730037852       -0.5074995760        1.6012172015
 C         -1.4255719303       -0.6677168048        0.8422717532
 H         -0.8289454593        0.2009213843        0.6107162998
 N         -2.9485687250        0.7854106222        1.9966215024
 S         -2.6989875155        2.0608083982        0.9422728098
 O         -1.3082590993        2.4406753913        0.9289074527
 O         -3.6234996879        3.0793906051        1.3945726860
 C         -3.2190477722        1.4407058438       -0.6481414972
 C         -4.5726959006        1.2215486632       -0.8228076509
 C         -5.0206085486        0.6897442888       -2.0200681000
 C         -4.1099047984        0.3808075030       -3.0195587082
 C         -2.7568563880        0.6123682372       -2.8316969689
 C         -2.3020235851        1.1480130573       -1.6362262233
 H         -1.2509353597        1.3284569557       -1.4722088960
 H         -2.0402658945        0.3757245642       -3.6022142852
 H         -4.4554266140       -0.0400506500       -3.9506200659
 H         -6.0737435956        0.5147340286       -2.1696794613
 H         -5.2493184675        1.4855371929       -0.0263428965
 H         -3.8425186472        0.8479865684        2.4609764717
 H         -4.2204298238       -1.5039648786        2.5464828494
 H         -3.5027462209       -3.7391854580        1.7905564509
 H         -1.4945178488       -4.0045907173        0.4058162823
 H         -0.0778678571       -1.6347091397       -1.4787094435
 C          0.7676094992       -3.3978774368       -0.6109246832
 C          0.2489567454       -4.3241564740       -1.6690163704
 C          1.6160422598       -3.7259016588       -1.8020320799
 H          2.4773385840       -4.3618417551       -1.6626617882
 H          1.7652418026       -2.9449732552       -2.5336264528
 H          0.1732072436       -5.3765065629       -1.4403124516
 H         -0.5290939223       -3.9548952862       -2.3197556309
 H          1.0612977634       -3.8191698494        0.3437551670
