  62
        -98.93879090
 C         -1.8339948107       -0.7286465157        0.2986204496
 C         -2.1519344484        0.5602336629       -0.2035083117
 C         -3.5253628435        0.7582667426       -0.6822206765
 C         -4.3872306634       -0.2736512893       -0.6396348834
 C         -5.8306433648       -0.2039501259       -1.0447902168
 C         -6.7262369945        0.1623524036        0.1469116204
 C         -6.2374893942        1.3764417526        0.9368261632
 H         -6.9623389698        1.5595986681        1.7330484679
 H         -5.2878776048        1.1299286103        1.4172762058
 C         -6.0644662010        2.6510918470        0.0990738799
 H         -6.6140453412        2.5559084872       -0.8380965175
 H         -6.4989750641        3.4908645620        0.6455007164
 C         -4.6103020116        3.0190662130       -0.2014506177
 H         -4.5931859255        4.0358173295       -0.6028000133
 H         -4.0343370227        3.0241127665        0.7272694969
 C         -3.8885655107        2.1174151450       -1.2108779400
 H         -4.4882957065        2.0287887788       -2.1191256316
 H         -2.9412979708        2.5994530664       -1.4693840487
 H         -6.7673070892       -0.6933491169        0.8248834645
 H         -7.7353579023        0.3497876731       -0.2246480205
 H         -5.9439230347        0.5328531191       -1.8377354201
 H         -6.1290198916       -1.1825315604       -1.4246934076
 O         -4.0447801093       -1.4998265401       -0.1741709506
 C         -2.7658271374       -1.7675892962        0.3065606735
 O         -2.6176197501       -2.9407261188        0.6919046656
 H          2.0265794339        0.0220060117        0.2241125768
 C          1.7554097445       -0.7993019179       -0.4201303731
 C          0.5107573330       -1.3943872788       -0.2806919802
 C          0.1635698255       -2.4308604414       -1.1406965382
 C          1.0523986060       -2.8604621651       -2.1095455692
 C          2.3057672601       -2.2846778899       -2.2243866216
 C          2.6619553509       -1.2478507204       -1.3702622617
 N          3.9184743902       -0.6356918086       -1.4576191536
 S          4.7037805238       -0.1408907906       -0.0633025600
 O          6.1000820928       -0.0808688442       -0.4373350493
 O          4.3788187353       -0.9928686169        1.0559776861
 C          4.1039377592        1.5111563022        0.2152946863
 C          3.5579015471        1.8469775680        1.4381268412
 C          3.0982801246        3.1395311698        1.6347381776
 C          3.1946102484        4.0689412493        0.6108772805
 C          3.7512019091        3.7173396872       -0.6096159163
 C          4.2119696128        2.4267456883       -0.8124938094
 H          4.6515241844        2.1164581692       -1.7457239049
 H          3.8232477555        4.4439285295       -1.4028521392
 H          2.8315015879        5.0726790971        0.7657521837
 H          2.6632808611        3.4138232079        2.5825218069
 H          3.4947687393        1.0918739801        2.2064793592
 H          4.5514566057       -1.0454105599       -2.1285627816
 H          3.0025507090       -2.6336382557       -2.9712980620
 H          0.7717053200       -3.6642322164       -2.7736899703
 H         -0.8026029759       -2.9014417147       -1.0356678815
 C         -0.4169590463       -0.9168154880        0.8067146091
 H         -0.0857928346        0.0958366963        1.0890851428
 C         -0.3235486177       -1.7806411717        2.0567611273
 C          0.2006290351       -3.1816016526        2.0587135412
 C          1.0116695350       -2.0820470538        2.6724752231
 H          1.1014696877       -2.0468340305        3.7480326611
 H          1.9008720744       -1.7622205370        2.1474129555
 H         -0.2864831508       -3.8974287086        2.7030297302
 H          0.5361859623       -3.6016078030        1.1236609498
 H         -1.1380340820       -1.5773838150        2.7454349304
 O         -1.3193815354        1.5058714588       -0.2410977410
