  62
        -98.94390775
 C         -1.8706047702       -1.2741415005        0.1113290999
 C         -2.3762524603       -0.4463017313        1.1446505605
 C         -3.7291076405        0.0816683485        0.9447569910
 C         -4.4018105604       -0.2193100308       -0.1811692992
 C         -5.8012920606        0.2170616491       -0.5200789988
 C         -5.8864275709        1.6167698995       -1.1437240679
 C         -5.6391502111        2.7751084689       -0.1765578671
 H         -5.9408115014        3.6906897992       -0.6891563564
 H         -6.2841102011        2.6630861081        0.6955835729
 C         -4.1793659911        2.9215671689        0.2753668530
 H         -3.5295845610        2.3636597695       -0.4033613075
 H         -3.8814190414        3.9706511990        0.2103881037
 C         -3.9104502210        2.4622943579        1.7085484626
 H         -2.8424094310        2.5789315281        1.9099727227
 H         -4.4553660511        3.1021278073        2.4062864431
 C         -4.2897445506        1.0017710977        1.9870645716
 H         -5.3732951306        0.8994616974        2.0417714516
 H         -3.8615130105        0.7145498671        2.9505314614
 H         -5.1752584810        1.6747928302       -1.9710650279
 H         -6.8902806409        1.7275356896       -1.5601678377
 H         -6.4240658905        0.1773715383        0.3740640812
 H         -6.1847772004       -0.5054100905       -1.2437184093
 O         -3.8726063503       -0.9952711800       -1.1620455198
 C         -2.5903974102       -1.5195355198       -1.0586661602
 O         -2.2323534301       -2.1760453591       -2.0534436407
 O         -1.7266811503       -0.1662650519        2.1884863907
 C         -0.4690129901       -1.8383174203        0.2766224295
 C          0.4681728597       -1.0596669394       -0.6124048500
 C          0.9392671398       -1.5312828885       -1.8304729904
 C          1.7845918796       -0.7521700978       -2.6023841599
 C          2.1890131593        0.4983701820       -2.1712885690
 C          1.7252741093        0.9757494111       -0.9522043287
 C          0.8689803395        0.2010699804       -0.1865207192
 H          0.5000268594        0.5762106896        0.7597190511
 N          2.1904343490        2.2237028509       -0.4781480978
 S          3.8466110990        2.2489501210       -0.1879946979
 O          4.0570321688        3.2739799404        0.8094733228
 O          4.5416698389        2.4278302321       -1.4372103078
 C          4.1843817094        0.6274702306        0.4752270110
 C          3.7926017495        0.3594740996        1.7717671008
 C          3.9378678998       -0.9273074307        2.2638259899
 C          4.4593720600       -1.9215073600        1.4501776992
 C          4.8524888499       -1.6352916290        0.1521549594
 C          4.7130266496       -0.3492690187       -0.3441010597
 H          5.0035612695       -0.0853791979       -1.3474167395
 H          5.2577844200       -2.4109463485       -0.4770940512
 H          4.5599133103       -2.9256621902        1.8315490385
 H          3.6340577999       -1.1518984214        3.2739303398
 H          3.3897341894        1.1577633591        2.3749859014
 H          1.7004702290        2.5324991502        0.3502571324
 H          2.8638447491        1.1089261226       -2.7495068486
 H          2.1377445196       -1.1272506470       -3.5508276501
 H          0.6295625600       -2.5017303383       -2.1805233410
 H         -0.1958172801       -1.6175963409        1.3178901996
 C         -0.4004374697       -3.3351229801        0.0671155384
 C          0.8334460805       -4.0652494601        0.5047788379
 C         -0.4491673695       -4.2414580310        1.2589180678
 H         -0.9766989193       -5.1792754110        1.1696280572
 H         -0.5379868895       -3.7834350117        2.2331562781
 H          1.1903056506       -4.8841898596       -0.1002420727
 H          1.6166907803       -3.4797222803        0.9626174482
 H         -0.9007277797       -3.6696081396       -0.8328105918
