  62
        -98.94436285
 C         -2.6374161505       -1.3126780801        0.1148476403
 C         -2.5848664904       -0.2849519804       -0.8576865601
 C         -3.6510098905        0.7254909495       -0.7794886006
 C         -4.6003913207        0.6153264997        0.1672192693
 C         -5.7152738608        1.5957823296        0.3856695088
 C         -5.3138566311        2.6767494900        1.3988277485
 C         -3.9564125411        3.3186913001        1.1115630685
 H         -3.7923034913        4.0868248703        1.8703980983
 H         -3.1708017511        2.5699291202        1.2391176389
 C         -3.8334141810        3.9459896896       -0.2840660216
 H         -3.3588725411        4.9247502797       -0.1872704619
 H         -4.8257167809        4.1069867994       -0.7070657719
 C         -2.9876137607        3.1392267594       -1.2714449412
 H         -2.0228250808        2.8961385496       -0.8170658110
 H         -2.7861154906        3.7708808291       -2.1410874514
 C         -3.6205988005        1.8402833392       -1.7868028209
 H         -4.6233847804        2.0456297589       -2.1671500412
 H         -3.0052849703        1.4787721289       -2.6160708007
 H         -6.0874628212        3.4466161399        1.4070231681
 H         -5.2740154812        2.2233325603        2.3918049887
 H         -5.9804662007        2.0541857993       -0.5649310414
 H         -6.5795399008        1.0523100497        0.7710446288
 O         -4.6247460507       -0.3928185900        1.0753833196
 C         -3.6396291506       -1.3645252899        1.0865397801
 O         -3.7659482107       -2.2129706596        1.9916543304
 O         -1.7044482803       -0.2096613106       -1.7556550999
 C         -1.5788104204       -2.4035855400        0.1632271408
 C         -0.2585533805       -1.7666922697        0.5219177108
 C         -0.0154118008       -1.4198426393        1.8485110008
 C          1.1574470491       -0.7835344190        2.2072794207
 C          2.1090278892       -0.4704404493        1.2511870008
 C          1.8665601195       -0.7938557997       -0.0762471191
 C          0.6960196396       -1.4534020099       -0.4314086491
 H          0.5176536498       -1.6899046503       -1.4680771991
 N          2.8192788496       -0.4786655699       -1.0579368591
 S          3.5737672295        1.0179774302       -1.0161868494
 O          2.7388107893        2.0310201203       -0.4134305699
 O          4.0015685997        1.2614448098       -2.3767074494
 C          5.0131537393        0.7283588006       -0.0063658391
 C          5.8223462395       -0.3467825794       -0.3181403486
 C          6.9525259194       -0.5789513790        0.4490808317
 C          7.2562525691        0.2655395114        1.5065815614
 C          6.4365873990        1.3431852714        1.8043022809
 C          5.3032407691        1.5796899210        1.0416040907
 H          4.6339215489        2.4017600110        1.2405046003
 H          6.6742347188        1.9993891417        2.6261800408
 H          8.1366286790        0.0827388017        2.1022608916
 H          7.5919068595       -1.4164297490        0.2207094820
 H          5.5535934197       -0.9774904697       -1.1488701385
 H          2.5223991398       -0.7068855403       -1.9958299491
 H          3.0202158091        0.0371584609        1.5224789208
 H          1.3341645689       -0.5251766287        3.2404291407
 H         -0.7674128909       -1.6474421691        2.5918373207
 H         -1.8706815204       -3.0681692498        0.9872386710
 C         -1.5480045401       -3.2063120304       -1.1205500189
 C         -0.8407862299       -4.5270960803       -1.1434543484
 C         -2.3371461999       -4.4764977005       -1.2058422686
 H         -2.8241425997       -4.7177631509       -2.1388436586
 H         -2.8975721600       -4.7750843503       -0.3319435286
 H         -0.2988537397       -4.8077193206       -2.0336725182
 H         -0.3827712700       -4.8609699200       -0.2248064182
 H         -1.5077304400       -2.5909751807       -2.0109530091
