  62
        -98.94016226
 C         -0.6318385606       -1.4565706902       -0.2017759996
 C         -1.4526706204       -0.9708001093        0.8458374101
 C         -2.5015258395        0.0006440515        0.4915059997
 C         -2.6014960090        0.4148569913       -0.7848989304
 C         -3.5362289180        1.4071831719       -1.4468886509
 C         -4.7334990877        1.9718652530       -0.6870647812
 C         -5.8552022986        0.9629867640       -0.4361582012
 H         -6.5909807883        1.4231947047        0.2265663785
 H         -6.3500162686        0.7554684642       -1.3883525813
 C         -5.4201984198       -0.3761115162        0.1543514392
 H         -4.7248300700       -0.8691216869       -0.5280314806
 H         -6.3061379703       -1.0129023655        0.2261757991
 C         -4.7868940700       -0.3036055764        1.5417899893
 H         -4.6462624609       -1.3288068865        1.8945731395
 H         -5.4703845897        0.1958657743        2.2311875790
 C         -3.4234785594        0.4034749425        1.6068667794
 H         -3.5468690886        1.4823802726        1.6418731391
 H         -2.9274154799        0.0975300023        2.5322598496
 H         -5.1453896569        2.7753801832       -1.3037055415
 H         -4.4099472275        2.4258891630        0.2449414587
 H         -3.8909762982        0.9219125320       -2.3622040908
 H         -2.9019638873        2.2388843813       -1.7742666709
 O         -1.7458680091       -0.0298641496       -1.7505597902
 C         -0.7634864199       -0.9790612904       -1.5050916098
 O         -0.1116387200       -1.2886825311       -2.5209247996
 O         -1.3214427309       -1.3486932691        2.0406360902
 C          0.3940653685       -2.5056649509        0.1796874908
 C          1.7316143189       -1.9033488219        0.5417120709
 C          2.4929227482       -2.4599553023        1.5644370812
 C          3.7283848686       -1.9333045632        1.8916882113
 C          4.2176825496       -0.8257791638        1.2229459212
 C          3.4611765503       -0.2570951034        0.2046533709
 C          2.2326673199       -0.8046421525       -0.1397329892
 H          1.6732706404       -0.3671066922       -0.9525213394
 N          3.9191982014        0.8813864261       -0.4724094792
 S          2.8382046824        2.0300455468       -1.0114947897
 O          2.2592664423        1.6373146770       -2.2708070097
 O          3.6153728634        3.2534574862       -1.0432832998
 C          1.5672295423        2.1849465881        0.2329805700
 C          1.8951014720        2.1236029982        1.5728542301
 C          0.8979439419        2.3114612192        2.5161274698
 C         -0.3979040078        2.5846831801        2.1089939195
 C         -0.7076820174        2.6623606201        0.7609555094
 C          0.2801435326        2.4494498991       -0.1868017203
 H          0.0765228228        2.4733537990       -1.2464887704
 H         -1.7122387172        2.8872184008        0.4424704892
 H         -1.1710612078        2.7373586509        2.8449998293
 H          1.1356225517        2.2477762292        3.5655962899
 H          2.9118495317        1.9273282074        1.8708270603
 H          4.7610316916        1.2974952055       -0.1019054792
 H          5.1749051299       -0.4011228645        1.4837180313
 H          4.3104553981       -2.3778731735        2.6840081816
 H          2.1052625075       -3.3066612919        2.1097354613
 H         -0.0040854121       -2.9836335504        1.0861707908
 C          0.5934133778       -3.5776656013       -0.8756434089
 C          0.9813090766       -4.9646265815       -0.4632928285
 C         -0.3974106630       -4.6960820405       -0.9858308689
 H         -0.6622617831       -5.0515382805       -1.9701606189
 H         -1.2190652932       -4.7042986897       -0.2842985990
 H          1.6710160163       -5.5106180322       -1.0882917683
 H          1.0873788363       -5.1680665314        0.5910699215
 H          1.0082379783       -3.1915133119       -1.7982216589
