  62
        -98.93760872
 C         -1.8029250346       -0.3136838388       -0.3295048857
 C         -2.9461771562       -0.6489151465       -1.0892487407
 C         -4.2373309850       -0.6158882021       -0.3804551489
 C         -4.2564509544       -0.2884093469        0.9235284986
 C         -5.4605814401       -0.1466646420        1.8131618909
 C         -5.9460471498        1.3125961166        1.8433292789
 C         -6.9315700796        1.6870536969        0.7370424888
 H         -7.8909600987        1.2032486891        0.9322446636
 H         -7.0913034928        2.7661421483        0.7957391887
 C         -6.4860282980        1.3330004424       -0.6841730587
 H         -7.0544469658        1.9553070187       -1.3781464565
 H         -5.4319628231        1.5852202232       -0.8133709729
 C         -6.7169692676       -0.1434549195       -1.0387116965
 H         -7.3599486924       -0.5951404581       -0.2834702228
 H         -7.2590306298       -0.2077850108       -1.9845397956
 C         -5.4426136971       -0.9848529992       -1.2019810048
 H         -5.6834990193       -2.0368853339       -1.0148501075
 H         -5.0980502431       -0.9254296255       -2.2393103285
 H         -6.4295285967        1.5009679413        2.8040329088
 H         -5.0665255121        1.9589758362        1.7876458380
 H         -6.2537552250       -0.8187531896        1.4994457094
 H         -5.1385228008       -0.4267948604        2.8182557643
 O         -3.1282922076        0.0209901719        1.6203341065
 C         -1.8795053564        0.0172844528        1.0231602585
 O         -0.9416227102        0.3178903206        1.7844784079
 O         -2.8920753896       -0.9638300850       -2.3097990644
 C         -0.4413750669       -0.3279873883       -0.9983431814
 C          0.4771710748       -1.3078609215       -0.3106925279
 C         -0.0085842840       -2.5680060443        0.0303156101
 C          0.8011076886       -3.4909410309        0.6618548831
 C          2.1194785228       -3.1852272376        0.9514225156
 C          2.6195002226       -1.9374606401        0.6028095086
 C          1.7989221940       -1.0072066064       -0.0217849794
 H          2.2071166496       -0.0458459075       -0.2843597401
 N          3.9459762961       -1.5917668360        0.8953459682
 S          4.8431269472       -0.6838265290       -0.1830279754
 O          4.4949033677       -0.9817707704       -1.5526220462
 O          6.2196269111       -0.9368286943        0.1880312202
 C          4.4512684075        1.0105793494        0.1974248448
 C          4.2390882918        1.3767032925        1.5116180631
 C          3.9777661607        2.7064428726        1.8009277665
 C          3.9420392132        3.6439758677        0.7799067462
 C          4.1636542255        3.2613647220       -0.5338616899
 C          4.4211299810        1.9320048298       -0.8306523383
 H          4.5875926201        1.5885024356       -1.8393717410
 H          4.1351259841        3.9917255762       -1.3270463259
 H          3.7384572068        4.6781628270        1.0091116596
 H          3.8005946996        3.0067023627        2.8211494720
 H          4.2684262501        0.6235336038        2.2811624528
 H          4.4958566383       -2.3218044899        1.3236311514
 H          2.7545383501       -3.9055869248        1.4444011345
 H          0.4060409756       -4.4603723300        0.9264425752
 H         -1.0362346731       -2.8124237434       -0.2023347089
 H         -0.6201013428       -0.6932350765       -2.0212564654
 C          0.1197317477        1.0767208888       -1.0746579257
 C          1.0459933957        1.4657320309       -2.1866513045
 C         -0.3580703877        1.9881618688       -2.1637310025
 H         -0.5171667429        3.0303564202       -1.9317057873
 H         -1.0676079544        1.5843790535       -2.8712665256
 H          1.8506495084        2.1507686527       -1.9662712629
 H          1.2998966559        0.7097947818       -2.9147213876
 H          0.2866772836        1.5100828174       -0.0946023494
