  62
        -98.94435354
 C         -1.8864466983       -0.7707628449       -0.0051157415
 C         -2.4185617653        0.5220314732        0.2173593174
 C         -3.8323388034        0.5655129601        0.6134212010
 C         -4.5223450254       -0.5797343265        0.7642759606
 C         -5.9605861866       -0.6985556264        1.1904419277
 C         -6.9673812602       -0.5341119559        0.0438443623
 C         -7.1248757359        0.8927606171       -0.4828754382
 H         -8.0081803938        0.9018656756       -1.1245858660
 H         -7.3216724318        1.5671821640        0.3510881501
 C         -5.9239532913        1.4058889911       -1.2897674171
 H         -5.3025237823        0.5612633555       -1.5962304337
 H         -6.2784562510        1.8894665069       -2.2029034546
 C         -5.0497726085        2.4196053134       -0.5511917787
 H         -5.6259202739        3.3267668649       -0.3553805953
 H         -4.2119231038        2.6870045423       -1.2003192198
 C         -4.4749420057        1.9096781676        0.7769028147
 H         -3.7018832229        2.6081249674        1.1070574934
 H         -5.2574211827        1.8694943798        1.5344866672
 H         -6.6748619713       -1.1947365052       -0.7755270348
 H         -7.9388069247       -0.8716930530        0.4122921858
 H         -6.0780872582       -1.6999191538        1.6102389111
 H         -6.1733158171        0.0326526253        1.9707630002
 O         -3.9657098962       -1.8034891260        0.5602952668
 C         -2.6467591404       -1.9288712482        0.1552542635
 O         -2.2699761268       -3.1062473758       -0.0150757076
 H          1.6849155741        0.8012151158       -0.8674236392
 C          1.5139861552        0.5699563867        0.1702123423
 C          0.4824428838       -0.2732108249        0.5513901107
 C          0.3023099422       -0.5333015760        1.9081971345
 C          1.1135627155        0.0578104421        2.8559985298
 C          2.1365406996        0.9075918223        2.4716738943
 C          2.3347276468        1.1633185993        1.1214293613
 N          3.3653032289        2.0206111467        0.7003526066
 S          4.3539002656        1.5491673870       -0.5634857061
 O          5.5440097675        2.3579718879       -0.4162448738
 O          3.6580508304        1.6675039527       -1.8186055580
 C          4.7241174287       -0.1595351400       -0.2121826609
 C          4.0914654467       -1.1600798730       -0.9202977734
 C          4.3393699880       -2.4804602129       -0.5793539754
 C          5.2092135675       -2.7750167151        0.4587624783
 C          5.8423711283       -1.7577184559        1.1569430023
 C          5.5960096965       -0.4363474329        0.8229437001
 H          6.0764081444        0.3816009572        1.3349690665
 H          6.5222822170       -1.9911569775        1.9603475985
 H          5.3960535928       -3.8039810798        0.7227632045
 H          3.8498257328       -3.2733239555       -1.1223754951
 H          3.4244518103       -0.8902550208       -1.7222657992
 H          3.9090470195        2.4159760198        1.4536351590
 H          2.7676116068        1.3768945187        3.2109819763
 H          0.9517989585       -0.1456044678        3.9038193332
 H         -0.4967192791       -1.1974636735        2.2091610737
 C         -0.4421084641       -0.9298012948       -0.4444302817
 H         -0.2411388817       -2.0113093499       -0.4382602024
 C         -0.2742901385       -0.4115325899       -1.8577543507
 C          0.7103670545       -1.0506087518       -2.7881730328
 C         -0.7597442428       -1.2486401217       -3.0014911998
 H         -1.2347339540       -0.7556927599       -3.8365016496
 H         -1.1851466877       -2.2129576063       -2.7631568662
 H          1.2742228452       -1.8916260224       -2.4133846770
 H          1.2545492220       -0.4205621902       -3.4765783480
 H         -0.4248872758        0.6599043998       -1.9304818203
 O         -1.7516825020        1.5825777296        0.0983104709
