  62
        -98.93678578
 C          2.4185952254        1.2284549513        0.1224364894
 C          2.3389402481       -0.0447497881       -0.4934426647
 C          3.6243985460       -0.6487463751       -0.8825422762
 C          4.7701400142        0.0131450223       -0.6426907617
 C          6.1450704197       -0.5092510679       -0.9408532116
 C          6.7250349770       -1.2642021337        0.2635241690
 C          5.7714363657       -2.2983691449        0.8619121937
 H          4.9101199804       -1.7827295959        1.2928786842
 H          6.2973957675       -2.7880183178        1.6843057643
 C          5.2789956663       -3.3585127890       -0.1330336993
 H          5.3378328229       -4.3395294566        0.3429539070
 H          5.9341217498       -3.3813710981       -1.0046017297
 C          3.8315682276       -3.1740638441       -0.5932677932
 H          3.1802137753       -3.0560942509        0.2766588667
 H          3.5207632450       -4.0846324110       -1.1125352537
 C          3.5783677540       -1.9973505914       -1.5442454141
 H          2.5635891674       -2.1027148546       -1.9399240198
 H          4.2792748875       -2.0413986417       -2.3805147164
 H          6.9729170686       -0.5374403709        1.0404966600
 H          7.6479236598       -1.7556916068       -0.0494084008
 H          6.0983138951       -1.1658390462       -1.8073938037
 H          6.7917049296        0.3387021056       -1.1726487420
 O          4.8073579240        1.2302259209       -0.0423329285
 C          3.6426672219        1.8554965188        0.3707457558
 O          3.8251642029        2.9473002618        0.9446193790
 H         -1.4480555756        1.3306424291       -0.0316063225
 C         -1.0762617563        0.8170525078        0.8379641425
 C          0.2251976457        1.0144439531        1.2712204277
 C          0.6719247316        0.3116197371        2.3875044845
 C         -0.1562129860       -0.5834480267        3.0352896837
 C         -1.4500626275       -0.7890317826        2.5906306584
 C         -1.9123252120       -0.0799948812        1.4878555317
 N         -3.2441231163       -0.2375806439        1.0658383654
 S         -3.7186946686        0.0090707359       -0.5308401763
 O         -3.0415620760       -0.9033495693       -1.4246590723
 O         -3.6147685030        1.4125048980       -0.8420232304
 C         -5.4393386952       -0.4406511834       -0.3876267622
 C         -5.8626676638       -1.6817953589       -0.8230181601
 C         -7.1990436318       -2.0224465777       -0.6822041106
 C         -8.0840654132       -1.1220616646       -0.1088958689
 C         -7.6447043219        0.1207794459        0.3229766757
 C         -6.3104749383        0.4676553939        0.1837447815
 H         -5.9252007106        1.4241629558        0.4960435486
 H         -8.3363157678        0.8191331302        0.7659513954
 H         -9.1233098397       -1.3895151661       -0.0005543828
 H         -7.5439150986       -2.9864738379       -1.0199459760
 H         -5.1400695900       -2.3460231268       -1.2695705266
 H         -3.6691228548       -1.0779461364        1.4336209869
 H         -2.0960986568       -1.4935338391        3.0922551886
 H          0.2087331599       -1.1313523506        3.8913540848
 H          1.6872493749        0.4662275240        2.7288782108
 C          1.1774296089        1.9680691033        0.5912128569
 H          1.5398223271        2.6792491830        1.3530116893
 C          0.5101473862        2.7999740914       -0.4941559166
 C          1.2895702959        3.3546164827       -1.6477240653
 C          0.2820781627        2.2700824349       -1.8766451691
 H         -0.6465066361        2.5168252116       -2.3718447643
 H          0.6326185554        1.2728160066       -2.0925109559
 H          2.3378369439        3.1015893461       -1.7141292100
 H          1.0586897824        4.3531017161       -1.9872173810
 H         -0.2669409761        3.4429699948       -0.0908539963
 O          1.2620550832       -0.6592118534       -0.7109437215
