  62
        -98.94102603
 C          1.0668722814        1.3344588045       -0.1842505708
 C          1.9472825633        0.9379232515        0.8540514524
 C          2.8480203171       -0.1991551797        0.5886815413
 C          2.7865942212       -0.8009225424       -0.6134118812
 C          3.6312055716       -1.9306496363       -1.1411064617
 C          5.0492387145       -1.4804863860       -1.5265284397
 C          5.7341495911       -0.5725406093       -0.5087603451
 H          6.6869575787       -0.2525588511       -0.9388121511
 H          5.1286163378        0.3236570299       -0.3628485022
 C          6.0252538782       -1.2154815960        0.8453317610
 H          6.6077774017       -0.4957857834        1.4262397731
 H          6.6477068095       -2.1005384863        0.6959548035
 C          4.8014087685       -1.6126160867        1.6744054768
 H          5.1477560893       -1.8014048470        2.6946616800
 H          4.3719242248       -2.5453391441        1.3184839086
 C          3.7243191155       -0.5367291302        1.7703476645
 H          3.0341037206       -0.8029291181        2.5798157422
 H          4.1855066268        0.4052946174        2.0877149586
 H          4.9862997811       -0.9338478895       -2.4707074967
 H          5.6595469247       -2.3698629064       -1.6929133717
 H          3.1328437164       -2.3023192285       -2.0390250128
 H          3.6699023401       -2.7436297175       -0.4221530139
 O          1.9100537386       -0.4007571033       -1.5750116744
 C          1.0297341939        0.6479522010       -1.3969531010
 O          0.2919708289        0.8459549536       -2.3850094790
 O          1.9934791840        1.5234491094        1.9686820483
 C          0.1668886116        2.5248242826        0.1058957282
 C         -1.2121198667        2.0654821136        0.5115893191
 C         -1.7169887658        2.3283131501        1.7793193291
 C         -2.9687889424        1.8677511166        2.1513095125
 C         -3.7363299251        1.1240511524        1.2721593009
 C         -3.2345521185        0.8516336872        0.0068670180
 C         -1.9910359629        1.3314708998       -0.3715941923
 H         -1.6069750102        1.1060485405       -1.3553612723
 N         -3.9782725791        0.0306813756       -0.8765045873
 S         -4.0290303313       -1.5733727790       -0.3885349037
 O         -4.4307603133       -2.3325198545       -1.5505569504
 O         -4.8866933746       -1.6738083090        0.7648573695
 C         -2.3511983118       -1.9738879748        0.0710936304
 C         -1.9370190866       -1.7467801661        1.3683817231
 C         -0.6178670994       -2.0027404780        1.7040232672
 C          0.2579359995       -2.4864203911        0.7450043906
 C         -0.1729409051       -2.7087322851       -0.5535078652
 C         -1.4875993636       -2.4413759420       -0.8985225418
 H         -1.8583726885       -2.6000701261       -1.8987717916
 H          0.5123175097       -3.0789626537       -1.2991056615
 H          1.2834079867       -2.6873155903        1.0117925388
 H         -0.2750541923       -1.8208197439        2.7099859670
 H         -2.6497628234       -1.3828770938        2.0900027788
 H         -3.6179908003        0.0662340173       -1.8211122463
 H         -4.6993530649        0.7287485945        1.5521031591
 H         -3.3472683738        2.0817919300        3.1391762370
 H         -1.1128822317        2.8825731396        2.4824469610
 H          0.6214480722        3.0243471064        0.9717210780
 C          0.0937861608        3.5172656033       -1.0380089071
 C         -0.3213993594        4.9277160078       -0.7501898474
 C          1.1000614286        4.6241316367       -1.1155541276
 H          1.4611457578        4.9241178786       -2.0878451169
 H          1.8483313109        4.6754274096       -0.3380452637
 H         -0.9404292532        5.4393416196       -1.4710225797
 H         -0.5360058814        5.1867409179        0.2754919674
 H         -0.2312644943        3.0771907542       -1.9717169104
