  62
        -98.94507887
 C         -1.0936746570       -1.2108878031        0.4663311054
 C         -1.6780295086       -0.6838854883       -0.7135752082
 C         -2.4565011691        0.5524461204       -0.5422313318
 C         -2.5552273617        1.1301374490        0.6672952842
 C         -3.2752546024        2.4123307683        0.9856387102
 C         -4.7839409168        2.2435730462        1.2118644718
 C         -5.6046307397        1.9637522871       -0.0477309970
 H         -5.3722285072        2.7132016034       -0.8050840062
 H         -6.6557358710        2.0866207352        0.2208810397
 C         -5.4066851100        0.5589707028       -0.6342480165
 H         -6.3790639661        0.1263350719       -0.8799530735
 H         -4.9481833260       -0.0884073140        0.1166733230
 C         -4.5585882064        0.5166415179       -1.9057378660
 H         -5.0718678864        1.0516313991       -2.7080194330
 H         -4.4500686143       -0.5268086516       -2.2125992179
 C         -3.1532280399        1.1106356614       -1.7454192916
 H         -3.2061936327        2.1979182126       -1.6836271035
 H         -2.5588309221        0.8455645293       -2.6239217181
 H         -5.1510107998        3.1699087895        1.6596477747
 H         -4.9406709534        1.4394249754        1.9343816851
 H         -3.1019917280        3.1352870927        0.1874793253
 H         -2.8302752781        2.7986643117        1.9053269354
 O         -1.9698113223        0.6021187135        1.7748553619
 C         -1.2435923128       -0.5764796449        1.7022302880
 O         -0.7816457739       -0.9529775707        2.7981855561
 O         -1.5665338736       -1.1940049186       -1.8590511693
 C         -0.2341098716       -2.4618634756        0.4890133638
 C          1.2097610320       -2.1663857479        0.1476388229
 C          2.2319149973       -2.9093221591        0.7300431881
 C          3.5550228790       -2.6535609621        0.4219286893
 C          3.8890058528       -1.6318858798       -0.4496825520
 C          2.8770302000       -0.8801879842       -1.0324931714
 C          1.5485345150       -1.1634660089       -0.7471135110
 H          0.7828364113       -0.5824137316       -1.2352277601
 N          3.1731898315        0.1907381565       -1.8967386543
 S          2.4485378908        1.6657397504       -1.5654677657
 O          1.0700227703        1.6616394117       -1.9792162747
 O          3.3027850680        2.6399070780       -2.2110458992
 C          2.5744293340        1.8145368268        0.2065790667
 C          1.4805634679        1.5166820106        0.9921011182
 C          1.6176109988        1.5324330267        2.3709862697
 C          2.8424555483        1.8514781006        2.9363664029
 C          3.9303243905        2.1629745173        2.1341485833
 C          3.8005319311        2.1368673262        0.7554068417
 H          4.6201643482        2.3749040214        0.0969002095
 H          4.8784564350        2.4168199208        2.5800524798
 H          2.9455619070        1.8565175330        4.0099515501
 H          0.7716418169        1.2716120671        2.9881494176
 H          0.5421727386        1.2736527041        0.5178885911
 H          4.1612711081        0.3195246222       -2.0653772750
 H          4.9216550994       -1.4161542060       -0.6772112088
 H          4.3362719972       -3.2416510553        0.8780288054
 H          1.9827025397       -3.6872425181        1.4353525413
 H         -0.2577580381       -2.8220831873        1.5274323604
 C         -0.7578648727       -3.5675483511       -0.4094137035
 C         -0.5441048192       -5.0007620730       -0.0307527398
 C         -1.9149734741       -4.4005562297        0.0502887935
 H         -2.6580901377       -4.6932668353       -0.6759929675
 H         -2.3219553512       -4.1896403609        1.0289199741
 H         -0.3400830700       -5.7129301335       -0.8153625860
 H         -0.0336457189       -5.2092999466        0.8968964002
 H         -0.7194492753       -3.3117693521       -1.4605368572
