  62
        -98.94393755
 C         -1.8272322595       -1.1328122974        0.2318910691
 C         -2.1619917522       -0.1211805585       -0.6998551012
 C         -3.5916890111        0.0012494346       -1.0223401965
 C         -4.4725990759       -0.8398703041       -0.4503598694
 C         -5.9598511213       -0.7873223975       -0.6445817542
 C         -6.6261959302        0.0994653137        0.4167791545
 C         -5.9633187308        1.4668205687        0.5842122155
 H         -6.5346068595        2.0155756503        1.3360688118
 H         -4.9557272833        1.3293007945        0.9833575408
 C         -5.8856645104        2.2968124036       -0.7047579611
 H         -6.5911563839        1.9073760734       -1.4396202211
 H         -6.1850791066        3.3226161795       -0.4797392558
 C         -4.4912650996        2.3675583898       -1.3304547903
 H         -3.7622873828        2.6680429783       -0.5731596896
 H         -4.5019155312        3.1452113010       -2.0989999034
 C         -3.9908790450        1.0773451579       -1.9922738456
 H         -4.7418399645        0.7075766952       -2.6935401292
 H         -3.0854283861        1.3232451202       -2.5552741486
 H         -7.6751895653        0.2325869009        0.1463536895
 H         -6.5856622924       -0.4201360136        1.3768525899
 H         -6.1779305443       -0.4069640337       -1.6405075479
 H         -6.3541329788       -1.8011316161       -0.5577001139
 O         -4.1084364003       -1.8143653440        0.4217894941
 C         -2.7840998231       -1.9777282432        0.7938474743
 O         -2.5895419885       -2.8916519192        1.6204781350
 H          2.0332290087       -0.1184712964        0.0715326433
 C          1.4448711406        0.4252808874        0.7911867247
 C          0.1983933748       -0.0446189486        1.1750481564
 C         -0.5311476050        0.6861782714        2.1096650913
 C         -0.0385387122        1.8702130250        2.6213993589
 C          1.1951737243        2.3488938161        2.2167855688
 C          1.9404766905        1.6193947050        1.2986414223
 N          3.2164552943        2.0546592387        0.9216392456
 S          3.8808736197        1.7162101418       -0.5717109826
 O          4.9956208193        2.6356870250       -0.6731161655
 O          2.9123551950        1.7816823536       -1.6398096314
 C          4.5210849467        0.0615862020       -0.4157685755
 C          4.4904667524       -0.7685636023       -1.5186242979
 C          5.0337692615       -2.0401266202       -1.4182376497
 C          5.5945740644       -2.4579444836       -0.2212560225
 C          5.6176503403       -1.6118649626        0.8769253317
 C          5.0815888282       -0.3375975933        0.7814123821
 H          5.0837433710        0.3445411650        1.6148540996
 H          6.0524503505       -1.9411660770        1.8068174686
 H          6.0130894555       -3.4489892491       -0.1447596855
 H          5.0164280143       -2.6984604076       -2.2725491592
 H          4.0317114870       -0.4076944446       -2.4258315926
 H          3.4823545268        2.9669537064        1.2607628994
 H          1.5780146549        3.2789740774        2.6083682237
 H         -0.6210537579        2.4302757584        3.3376332594
 H         -1.4983145721        0.3149921610        2.4217048157
 C         -0.3802411726       -1.3332162151        0.6442580907
 H         -0.3992618386       -2.0629920111        1.4674359106
 C          0.4125090014       -1.9218969432       -0.5044225386
 C          1.5713814961       -2.8313619187       -0.2298420506
 C          0.2952437990       -3.3893757294       -0.7825180743
 H          0.2759137852       -3.7190517688       -1.8103950714
 H         -0.3415049584       -3.9656886591       -0.1269757681
 H          2.4330863652       -2.7789218837       -0.8778330947
 H          1.8089127491       -3.0381188393        0.8025912826
 H          0.4733436869       -1.2522443138       -1.3557253509
 O         -1.3149086258        0.6427022481       -1.2329741272
