  62
        -98.93974114
 C          1.6477681176        1.5906628526       -0.1082470616
 C          2.7380675032        0.8905700254        0.4651546652
 C          3.0980309924       -0.3843009321       -0.1648484957
 C          2.4219751374       -0.8049219632       -1.2483475222
 C          2.6631957076       -2.0775064661       -2.0133938982
 C          2.2931820338       -3.3687524223       -1.2564175969
 C          3.4754519970       -4.0368116384       -0.5429469451
 H          3.3847635840       -5.1192548350       -0.6545846934
 H          4.3985528963       -3.7451611084       -1.0462194946
 C          3.6013466398       -3.7531922634        0.9572081751
 H          2.8790281308       -4.3697523008        1.4975792513
 H          4.6009464414       -4.0598237627        1.2740636112
 C          3.3667219686       -2.3049394573        1.3873675268
 H          3.6678818929       -2.2063080057        2.4328911818
 H          2.2951266845       -2.0853230325        1.3544381644
 C          4.1031886129       -1.2486867953        0.5380037734
 H          4.6905933874       -0.5935740539        1.1846470379
 H          4.7741924700       -1.7252398554       -0.1750275531
 H          1.4875138512       -3.1520796422       -0.5527545833
 H          1.8983020977       -4.0709335577       -1.9928722219
 H          2.0493158825       -2.0027624326       -2.9130838993
 H          3.7106954726       -2.1185608459       -2.3198265051
 O          1.4154058194       -0.0812811392       -1.8009150664
 C          0.9444886257        1.0735529483       -1.1965190922
 O         -0.0803075849        1.5362202249       -1.7345997390
 O          3.3672477175        1.3046907870        1.4771537760
 C          1.1065572709        2.7955300892        0.6448930167
 C         -0.3548806263        2.5441581556        0.9250889316
 C         -1.3826822262        3.4269588939        0.6246350773
 C         -2.7007939781        3.0733473557        0.8638751214
 C         -3.0225709014        1.8278849163        1.3712847093
 C         -1.9982481103        0.9388605323        1.6774822085
 C         -0.6812814097        1.3169716460        1.4911469803
 H          0.1031203601        0.6161032774        1.7392952727
 N         -2.2536286417       -0.3672294906        2.1505142320
 S         -1.8371663653       -1.6171743614        1.1079596436
 O         -2.1843747459       -2.8316514535        1.8153754010
 O         -0.4612033886       -1.4899912671        0.7042840825
 C         -2.9485996054       -1.4052868985       -0.2712992989
 C         -2.6856905668       -0.4326984098       -1.2148875582
 C         -3.6116027590       -0.2206521029       -2.2259499700
 C         -4.7737125312       -0.9743413918       -2.2754145164
 C         -5.0213155298       -1.9483128243       -1.3192673749
 C         -4.1044275425       -2.1629750499       -0.3036720740
 H         -4.2520166970       -2.9080533272        0.4615333971
 H         -5.9243339530       -2.5358669769       -1.3598902574
 H         -5.4891143517       -0.8011864002       -3.0638630920
 H         -3.4100983198        0.5388082571       -2.9643438628
 H         -1.7739557732        0.1426393422       -1.1654915619
 H         -3.2069998513       -0.5080430286        2.4575477776
 H         -4.0523443687        1.5399388647        1.5215629553
 H         -3.4904924448        3.7688635203        0.6241347836
 H         -1.1557880132        4.3823089933        0.1805467929
 H          1.6444681615        2.7717896678        1.6082514239
 C          1.3984393379        4.1510591995        0.0235346768
 C          2.5594708701        4.3355320700       -0.9063677442
 C          1.1589644084        4.4464438012       -1.4256508778
 H          0.7907002322        5.4266011354       -1.6916181013
 H          0.7717307519        3.6494081573       -2.0393482214
 H          3.1524453709        5.2334723936       -0.8172055033
 H          3.1317589224        3.4566713266       -1.1670865729
 H          1.2123693510        4.9624057873        0.7208734162
