  62
        -98.94330653
 C          1.8806565470        0.8361587006        0.6561061795
 C          2.2670529070        0.4350760553       -0.6457831385
 C          3.7116233610        0.4636415375       -0.9181829524
 C          4.5557929001        0.8915274843        0.0383332978
 C          6.0512683768        0.9166296168       -0.0858566284
 C          6.6704540617       -0.3912731225        0.4267939797
 C          6.0107729507       -1.6494045896       -0.1381352354
 H          6.5479741081       -2.5089301900        0.2688154905
 H          4.9837007321       -1.7098721659        0.2294475240
 C          6.0042213006       -1.7289701741       -1.6711430267
 H          6.3000942545       -2.7367777892       -1.9701649967
 H          6.7437420288       -1.0398225343       -2.0805173758
 C          4.6439500184       -1.4542934982       -2.3153650537
 H          4.7006580054       -1.7493022394       -3.3665247444
 H          3.8808778091       -2.0774185562       -1.8417606828
 C          4.1678185738        0.0033587130       -2.2740065014
 H          4.9506302942        0.6579084264       -2.6622855475
 H          3.2938259954        0.0854384445       -2.9265585315
 H          7.7330138957       -0.3920243949        0.1771230262
 H          6.5772626311       -0.4151388082        1.5151403227
 H          6.4324718024        1.7469147882        0.5109586362
 H          6.3224380535        1.0757972190       -1.1275654872
 O          4.1413701480        1.3074224545        1.2630174454
 C          2.8002084444        1.2726305988        1.6086801462
 O          2.5575755225        1.6483486262        2.7741487168
 O          1.4518613161        0.0674918993       -1.5306776737
 C          0.4156180538        0.8086674992        1.0473926786
 C         -0.1702946906       -0.5699729817        0.8574315917
 C          0.5973543310       -1.6926639643        1.1553994570
 C          0.0849130605       -2.9646355280        0.9925159581
 C         -1.2155002649       -3.1460516912        0.5559457886
 C         -1.9994329968       -2.0339628602        0.2789038766
 C         -1.4740289296       -0.7568584518        0.4232528131
 H         -2.0990361827        0.0918671012        0.1998889329
 N         -3.3235968181       -2.1795580208       -0.1626683789
 S         -4.5153125665       -1.1968287028        0.4830264759
 O         -4.2196529088       -0.8294418941        1.8481363854
 O         -5.7467321582       -1.9301736150        0.2766491349
 C         -4.5380411133        0.2506508788       -0.5529412343
 C         -4.3260857668        0.1139637171       -1.9105612121
 C         -4.3959864452        1.2405745581       -2.7144375581
 C         -4.6851241070        2.4755617547       -2.1537205923
 C         -4.9015866896        2.5949166326       -0.7896923553
 C         -4.8275394163        1.4726478874        0.0209419893
 H         -4.9753103349        1.5230188653        1.0878825546
 H         -5.1255485443        3.5557811153       -0.3539469900
 H         -4.7400757702        3.3502119045       -2.7825810838
 H         -4.2246527129        1.1523724232       -3.7752507883
 H         -4.1011649906       -0.8591976232       -2.3137506802
 H         -3.6391518537       -3.1352612284       -0.2456642053
 H         -1.6192804450       -4.1395468320        0.4321754955
 H          0.6995937535       -3.8239673884        1.2157086756
 H          1.6099467718       -1.5548691024        1.5103864629
 H          0.3804719094        1.0442792931        2.1220292582
 C         -0.3364239476        1.8849301027        0.2897222243
 C         -1.5016033511        2.5882661052        0.9161411893
 C         -0.1996212050        3.3080775100        0.7375809757
 H         -0.1356578174        4.0818327161       -0.0123723546
 H          0.4094182116        3.4938612911        1.6106042917
 H         -2.3310477823        2.8685685539        0.2843835452
 H         -1.7884888869        2.2925961227        1.9144936573
 H         -0.3661493036        1.6947247274       -0.7771292043
