  62
        -98.94117542
 C         -2.2418537968       -0.9001389815       -0.0640015369
 C         -2.9774347265       -0.4102850110        1.0473607430
 C         -3.8448318266        0.7482954704        0.8027590895
 C         -3.8695010415        1.2997707860       -0.4237240088
 C         -4.7444102689        2.4484884198       -0.8321851870
 C         -6.0839201947        1.9530529249       -1.3954113634
 C         -6.7777309216        0.9137551687       -0.5147339893
 H         -7.7249887664        0.6607693316       -0.9958113739
 H         -6.1739940132        0.0035485760       -0.4948770451
 C         -7.0426624846        1.3762749405        0.9248354833
 H         -6.9796468457        2.4635039081        0.9819942957
 H         -8.0612449607        1.0954700474        1.2006206169
 C         -6.1124862650        0.7596161538        1.9713256628
 H         -6.1006689634       -0.3271490463        1.8563792042
 H         -6.5213035777        0.9794718775        2.9610435480
 C         -4.6626257441        1.2606402414        1.9547025687
 H         -4.1712740859        0.8893558508        2.8587550591
 H         -4.6490982566        2.3522376870        1.9809696180
 H         -5.9024980009        1.5055397500       -2.3753894669
 H         -6.7403523312        2.8143742471       -1.5314933974
 H         -4.9151189153        3.0911587281        0.0293793257
 H         -4.2243644762        3.0204624504       -1.6026543500
 O         -3.1231597319        0.8321308821       -1.4544614146
 C         -2.3007576173       -0.2798581646       -1.3121248867
 O         -1.6979251810       -0.5848049079       -2.3590867311
 O         -2.9177635118       -0.9315958099        2.1929267571
 C         -1.3848185442       -2.1311809536        0.1806584438
 C          0.0409959182       -1.7486070157        0.4847996614
 C          0.6582195011       -2.1603807468        1.6597580243
 C          1.9632417838       -1.7906512306        1.9361680437
 C          2.6792487055       -1.0097266903        1.0468023371
 C          2.0686502123       -0.5856610035       -0.1264458495
 C          0.7596388791       -0.9546938613       -0.3992479588
 H          0.2873112736       -0.6207772606       -1.3117390697
 N          2.7892327113        0.2000534619       -1.0447124121
 S          3.5420272610        1.5840845177       -0.4622424302
 O          2.8520469441        2.1158648136        0.6911018484
 O          3.6618363179        2.4644981306       -1.6038533895
 C          5.1645611969        1.0155993679        0.0027163134
 C          5.9273659628        0.3736314237       -0.9532877378
 C          7.1934437762       -0.0726441122       -0.6097642760
 C          7.6740515111        0.1326782755        0.6751301257
 C          6.8977114548        0.7829468329        1.6220340041
 C          5.6295014109        1.2306551314        1.2853420267
 H          4.9871390047        1.7351098047        1.9896210684
 H          7.2730744105        0.9423136204        2.6201128439
 H          8.6596356333       -0.2163243188        0.9399451863
 H          7.8000382465       -0.5785921314       -1.3434257771
 H          5.5175452043        0.2374730445       -1.9401665414
 H          2.2643988433        0.4097206272       -1.8823710164
 H          3.6959116131       -0.7197962115        1.2558889846
 H          2.4292071644       -2.1153219627        2.8538503974
 H          0.1020613598       -2.7596600521        2.3656147123
 H         -1.8054790685       -2.5782755129        1.0951403410
 C         -1.5068780178       -3.1693140844       -0.9278559208
 C         -0.3805771373       -3.5687085800       -1.8291355890
 C         -0.8550149594       -4.5110843772       -0.7667966649
 H         -1.4037833787       -5.3933835613       -1.0589384434
 H         -0.2188689045       -4.6488800723        0.0945743978
 H         -0.6202914816       -3.7803000450       -2.8601356410
 H          0.5780050153       -3.0929363833       -1.6963502087
 H         -2.4946921227       -3.1612169761       -1.3780307235
