  62
        -98.94291880
 C          2.0488734739        0.8832473339        0.4740072778
 C          2.7551395433       -0.1720300638        1.1098520741
 C          4.1885198908       -0.2684766025        0.8176320902
 C          4.7633400532        0.6367957666        0.0055867580
 C          6.2204412329        0.6993923755       -0.3640945448
 C          6.6121464778       -0.2252580878       -1.5246664960
 C          6.6440199066       -1.7160377186       -1.1858050933
 H          7.1412145051       -2.2229183917       -2.0152087547
 H          7.2547432439       -1.8725591379       -0.2960878900
 C          5.2601317518       -2.3480274970       -0.9801499036
 H          4.4933797041       -1.6939635069       -1.4019686528
 H          5.2067938796       -3.2940706917       -1.5236229699
 C          4.9080948764       -2.6439247534        0.4778891811
 H          3.8944481546       -3.0522325544        0.5098192767
 H          5.5884134211       -3.4016457098        0.8732298837
 C          4.9536420306       -1.4182669109        1.3996512512
 H          4.4821274186       -1.6850568901        2.3488016622
 H          5.9870759283       -1.1297303834        1.5913412384
 H          5.9230477431       -0.0552289770       -2.3550183068
 H          7.6103255213        0.0717319910       -1.8545019355
 H          6.4206890901        1.7305474985       -0.6628990552
 H          6.8295108218        0.4662155976        0.5098025782
 O          4.0598136348        1.6437849178       -0.5708918326
 C          2.6919126263        1.7840556722       -0.3759386922
 O          2.2009714954        2.7385065345       -1.0094501331
 O          2.2106120636       -0.9909885048        1.8988753224
 C          0.5666295298        0.9877607140        0.7860154432
 C         -0.2969670372        0.3581572431       -0.2811916816
 C         -0.2224732388        0.7565924146       -1.6123336783
 C         -1.0370147326        0.1722221890       -2.5646275540
 C         -1.9573942859       -0.7981424134       -2.2071578457
 C         -2.0466525330       -1.1960929797       -0.8794318438
 C         -1.2098781190       -0.6255080962        0.0706561191
 H         -1.2847621382       -0.9560481164        1.0955879736
 N         -2.9842998254       -2.1667064981       -0.4738288470
 S         -4.1111649456       -1.7241957510        0.6844796784
 O         -3.4474664603       -1.4284571092        1.9271863606
 O         -5.0722741267       -2.8035173260        0.7055269735
 C         -4.8671399729       -0.2518073998        0.0175251384
 C         -6.0386666862       -0.3734348260       -0.7042232491
 C         -6.5898381672        0.7572693307       -1.2849787336
 C         -5.9556987831        1.9826090628       -1.1456470898
 C         -4.7781987666        2.0872299340       -0.4212971956
 C         -4.2252824570        0.9615857971        0.1687700705
 H         -3.3122583847        1.0112841144        0.7390646661
 H         -4.2823513285        3.0386875450       -0.3149490219
 H         -6.3810701374        2.8621785671       -1.6025413647
 H         -7.5073041825        0.6793872412       -1.8457751429
 H         -6.4980817102       -1.3454544286       -0.7842655833
 H         -3.4561630791       -2.6202429212       -1.2440434986
 H         -2.5985203819       -1.2475729623       -2.9505366681
 H         -0.9625812032        0.4841096831       -3.5953033633
 H          0.4828705986        1.5240852470       -1.8913129402
 H          0.4295104590        0.4019094845        1.7057547747
 C          0.1014428191        2.4065899885        1.0542787909
 C         -1.0846577569        2.6247854141        1.9432740439
 C          0.2886004479        2.9911366493        2.4202529742
 H          0.5485869827        4.0357005436        2.5017182766
 H          0.7505028512        2.3669152040        3.1716327566
 H         -1.7719464480        3.4211355125        1.7021094815
 H         -1.5526021678        1.7545707267        2.3814339311
 H          0.2305547510        3.0684939119        0.2078974517
