  62
        -98.94023075
 C         -2.4684214301       -0.3936393019       -0.0697007991
 C         -2.8442183008        0.6510532977        0.8077484011
 C         -2.6926612418        2.0154414379        0.2851129312
 C         -2.2266200119        2.1921607883       -0.9649023888
 C         -1.9675969829        3.5264668086       -1.6013833186
 C         -0.5217852032        3.9825828996       -1.3606330886
 C         -0.0793111831        3.8879895097        0.0997998414
 H         -0.0484158624        2.8365466797        0.3954175312
 H          0.9429419566        4.2666341805        0.1583281814
 C         -0.9671189336        4.6656474390        1.0818233115
 H         -0.3255050440        5.2146745694        1.7739431215
 H         -1.5632666042        5.4008574986        0.5403601816
 C         -1.8924617330        3.7929251182        1.9318959414
 H         -2.3075098334        4.4142132279        2.7299116315
 H         -1.3127124424        2.9971735186        2.4068341413
 C         -3.0736353226        3.1520472975        1.1918208614
 H         -3.6221179131        3.9179785372        0.6400188915
 H         -3.7437408422        2.7241605169        1.9432305413
 H         -0.4225351340        5.0125092397       -1.7076767985
 H          0.1376704872        3.3534764501       -1.9628277587
 H         -2.1360779929        3.4328568686       -2.6755354286
 H         -2.6644804634        4.2578380181       -1.1969590585
 O         -1.8851663112        1.1629268687       -1.7826785789
 C         -1.9874537803       -0.1537734314       -1.3571148790
 O         -1.6247296997       -0.9955481711       -2.2003730691
 O         -3.2766615806        0.4517415173        1.9753064411
 C         -2.5706976490       -1.8296993621        0.4091919508
 C         -1.2216334386       -2.5042655211        0.3397805607
 C         -1.0432373176       -3.8015981009       -0.1225153995
 C          0.2217207327       -4.3630103800       -0.1750454396
 C          1.3318666523       -3.6494359393        0.2343750105
 C          1.1648288013       -2.3516957594        0.7004465306
 C         -0.1030515091       -1.7948089203        0.7597656407
 H         -0.2282497098       -0.7833118805        1.1275227308
 N          2.2933234908       -1.6285086987        1.1219902107
 S          3.5881359307       -1.4805374376        0.0455975707
 O          3.2092046710       -1.9928759078       -1.2474083094
 O          4.7406952812       -2.1003941469        0.6563486406
 C          3.8377019794        0.2829888225       -0.0342409992
 C          3.0239486489        1.0195873021       -0.8740087390
 C          3.1999146579        2.3924765922       -0.9393994989
 C          4.1733667575        3.0024898328       -0.1620103689
 C          4.9779624481        2.2498594433        0.6798494310
 C          4.8115929090        0.8754014732        0.7463620209
 H          5.4195385395        0.2468069235        1.3761964408
 H          5.7343772177        2.7278800537        1.2809188111
 H          4.3058177167        4.0713712429       -0.2174580687
 H          2.5782395475        2.9792576218       -1.5964471388
 H          2.2799132393        0.5056856816       -1.4639856591
 H          2.0607898702       -0.7379583689        1.5378289208
 H          2.3261268825       -4.0654427286        0.1868576304
 H          0.3435696035       -5.3706642499       -0.5429790797
 H         -1.8946512573       -4.3739146415       -0.4525610495
 H         -2.8693407391       -1.7667181624        1.4666782308
 C         -3.6521059685       -2.5634375927       -0.3564972493
 C         -4.4322819577       -3.6637504334        0.2969015206
 C         -5.0838298187       -2.3419803938        0.0263518808
 H         -5.8237357687       -2.2794504742       -0.7574190892
 H         -5.2761130691       -1.6842211640        0.8614349609
 H         -4.7286046571       -4.5115136635       -0.3023635695
 H         -4.1910623275       -3.9088834933        1.3201683906
 H         -3.4240414085       -2.6519836625       -1.4130582093
