  62
        -98.93498070
 C          2.0340099486        1.1917163812        0.2992998727
 C          2.7141032921        0.4164973207        1.2735327996
 C          4.0462963345       -0.0707460291        0.9054212961
 C          4.5484383329        0.2205682286       -0.3080825635
 C          5.9008773949       -0.1853265846       -0.8276909388
 C          5.9422975177       -1.6002336205       -1.4210381750
 C          5.8684389630       -2.7368493010       -0.4005697788
 H          6.1257432450       -3.6577090880       -0.9278039841
 H          6.6238664463       -2.5816237653        0.3704031853
 C          4.4909103717       -2.9128212869        0.2537953695
 H          3.7353711821       -2.3940905267       -0.3413052696
 H          4.2217314371       -3.9716222373        0.2570453584
 C          4.4076695506       -2.4199023922        1.6985681943
 H          5.0634567453       -3.0235106298        2.3300262243
 H          3.3817053515       -2.5591908921        2.0491241230
 C          4.7752240619       -0.9418506984        1.8836447419
 H          4.4752849424       -0.6375584152        2.8894542669
 H          5.8520362320       -0.8071115713        1.7840651852
 H          5.1252948928       -1.7020601891       -2.1392270868
 H          6.8815542539       -1.6955947890       -1.9707171630
 H          6.1571290943        0.5256419545       -1.6160455387
 H          6.6401545532       -0.1019845546       -0.0305154555
 O          3.8637701297        0.9554947774       -1.2204804698
 C          2.5878798562        1.4449648924       -0.9572577656
 O          2.0908100152        2.0688688260       -1.9093434717
 O          2.2279724387        0.1461197942        2.4057440998
 C          0.6450352097        1.6980025578        0.6699560250
 C         -0.3776663618        1.0917769778       -0.2578502259
 C         -0.8145434896        1.6403726045       -1.4578620839
 C         -1.7341439194        0.9692876016       -2.2469258769
 C         -2.2371728135       -0.2615417173       -1.8702823329
 C         -1.8001702818       -0.8288042617       -0.6803045097
 C         -0.8890836819       -0.1493137483        0.1133459554
 H         -0.5494064654       -0.6019352284        1.0364774322
 N         -2.3070156254       -2.0803777710       -0.2820872995
 S         -3.9750357018       -2.2462503045       -0.2666621986
 O         -4.2458717693       -3.2880406325        0.6984368528
 O         -4.4483657923       -2.4872041269       -1.6065158158
 C         -4.5705461405       -0.6702175481        0.3186889565
 C         -5.2070167212        0.1952644226       -0.5471619947
 C         -5.5910328819        1.4434601450       -0.0831910333
 C         -5.3286307541        1.8037649972        1.2292513325
 C         -4.6927416350        0.9206055878        2.0886821046
 C         -4.3065777333       -0.3280938753        1.6303893981
 H         -3.8150258767       -1.0421906814        2.2718147833
 H         -4.4910216713        1.2023585701        3.1096935859
 H         -5.6211148752        2.7785174399        1.5864942456
 H         -6.0877210359        2.1317737902       -0.7478668485
 H         -5.3915666240       -0.1236096696       -1.5597984079
 H         -1.9072573892       -2.4225134869        0.5796425394
 H         -2.9473906482       -0.7967681142       -2.4794269284
 H         -2.0575326297        1.4136899538       -3.1759462358
 H         -0.4144513240        2.5753806183       -1.8052892675
 H          0.4673141341        1.2429713255        1.6571266374
 C          0.6265110138        3.1989625065        0.9291566581
 C          0.7530329308        4.2797664831       -0.1005699751
 C         -0.5451780323        4.0823580527        0.6222590791
 H         -0.8344651448        4.8177981331        1.3579868230
 H         -1.3724161621        3.6510254761        0.0811393057
 H          1.3556086116        5.1391574811        0.1590673011
 H          0.8455993852        3.9988880064       -1.1360088397
 H          1.1415679430        3.4064413066        1.8643837239
