  62
        -98.94475030
 C         -1.8307851534       -0.0800906889        0.1339684784
 C         -2.8429678044       -0.8720526725        0.7267848464
 C         -4.1806469619       -0.2683690640        0.7828134596
 C         -4.3601638895        0.9766614222        0.3047783911
 C         -5.6791907538        1.6905293451        0.2499099105
 C         -6.3922503331        1.4361268630       -1.0855490580
 C         -6.4590552349       -0.0396728482       -1.4787717071
 H         -7.0094168907       -0.1005081190       -2.4202112437
 H         -5.4473031386       -0.4022559448       -1.6746473594
 C         -7.1287742888       -0.9449571806       -0.4354409692
 H         -7.7190442433       -0.3409035732        0.2545432737
 H         -7.8187383943       -1.6185014762       -0.9481511652
 C         -6.1594125509       -1.8213724257        0.3598664846
 H         -5.5024078022       -2.3583198309       -0.3289650546
 H         -6.7443435553       -2.5681121871        0.9033739374
 C         -5.2860833985       -1.0886338147        1.3861571362
 H         -5.9152942448       -0.4732958196        2.0323209542
 H         -4.7941844779       -1.8454974585        2.0041120857
 H         -7.4028263018        1.8435421894       -1.0205473586
 H         -5.8581605422        1.9758074835       -1.8711187408
 H         -6.3030699370        1.3557045692        1.0763207746
 H         -5.4953642951        2.7610582784        0.3552251727
 O         -3.3573658713        1.7173921075       -0.2329249725
 C         -2.0713603771        1.2078897340       -0.3442567525
 O         -1.2548097017        1.9865871894       -0.8717164161
 H          1.9382384727        0.4606829826       -0.9195264559
 C          1.7094223986        0.7175448712        0.1009668534
 C          0.5591538197        0.2446661034        0.7115838682
 C          0.3030352648        0.6150290256        2.0305118023
 C          1.1597920205        1.4587246443        2.7080141195
 C          2.3003288311        1.9420803216        2.0900002113
 C          2.5716024976        1.5704135706        0.7797280479
 N          3.7173986441        2.0486651135        0.1292773802
 S          4.5639163976        1.0707114358       -0.9216373339
 O          5.8970993609        1.6348601584       -0.9417341636
 O          3.8994839865        0.9926150011       -2.1979769439
 C          4.5988950113       -0.5397614020       -0.1521805268
 C          4.9892923609       -0.6376651724        1.1690656418
 C          5.0192253141       -1.8861328847        1.7682901304
 C          4.6653724569       -3.0117327799        1.0398781693
 C          4.2846111604       -2.8982959775       -0.2877513132
 C          4.2494244320       -1.6508594879       -0.8906136251
 H          3.9531650259       -1.5166422152       -1.9180807535
 H          4.0126222586       -3.7739531944       -0.8553797622
 H          4.6876690489       -3.9826716202        1.5090990175
 H          5.3166868068       -1.9778436702        2.8004387171
 H          5.2671494866        0.2518678403        1.7101432152
 H          4.3273355984        2.6196849271        0.6947152703
 H          2.9667347482        2.6111948039        2.6126586900
 H          0.9412367170        1.7434733269        3.7261407703
 H         -0.5899643754        0.2400494883        2.5117298872
 C         -0.4296136393       -0.6528003712        0.0120999542
 H         -0.4604342319       -1.6140496526        0.5464782815
 C         -0.1019820060       -0.9157757258       -1.4420869149
 C          0.8434136802       -2.0151323902       -1.8187061490
 C         -0.6237481318       -2.1656542320       -2.0833799198
 H         -0.9744601120       -2.1149368219       -3.1033965919
 H         -1.1904165246       -2.8414372339       -1.4595217599
 H          1.5005060887       -1.8564564980       -2.6605027965
 H          1.2778491704       -2.5948360740       -1.0186045013
 H         -0.0992534525       -0.0111663301       -2.0408904384
 O         -2.6357239121       -2.0255973541        1.1903252068
