  62
        -98.94418370
 C         -1.6270208389       -1.4502068453        0.3944671532
 C         -1.7527533191       -0.2350041196        1.1189183260
 C         -3.0048860606        0.5102487696        0.9387759696
 C         -3.9689584441       -0.0096378108        0.1581879953
 C         -5.2861470161        0.6470425557       -0.1356431492
 C         -5.2118391756        1.5053342339       -1.4059888639
 C         -4.0140555545        2.4544119643       -1.4399810564
 H         -3.0954524621        1.8658186746       -1.4981824655
 H         -4.0843824516        3.0325920030       -2.3637974859
 C         -3.9277932163        3.4111988413       -0.2426562091
 H         -4.8958113811        3.4696544188        0.2561864848
 H         -3.6933995448        4.4118040267       -0.6116660131
 C         -2.8484557526        3.0482605349        0.7790997300
 H         -1.9026715841        2.8773193302        0.2596573452
 H         -2.7125307738        3.9028032992        1.4474082516
 C         -3.1433539358        1.8238421817        1.6554013119
 H         -2.4073214877        1.8018683054        2.4645339681
 H         -4.1358230282        1.9184645974        2.1008709569
 H         -5.1463163889        0.8398987750       -2.2699120059
 H         -6.1368507979        2.0789748770       -1.4889685017
 H         -5.5768035543        1.2611493093        0.7145893551
 H         -6.0343017328       -0.1344858784       -0.2792486524
 O         -3.8298537131       -1.1904164972       -0.4919035924
 C         -2.6533267544       -1.9252347629       -0.4228099234
 O         -2.6765747207       -2.9552394853       -1.1248092421
 O         -0.8573671220        0.2022681712        1.8894162967
 C         -0.3162959098       -2.1994448946        0.5614675747
 C          0.6535051269       -1.8715717275       -0.5493311328
 C          0.3420533345       -2.1210618573       -1.8819748873
 C          1.2518327937       -1.8200351532       -2.8786688398
 C          2.4804342010       -1.2625302375       -2.5701750967
 C          2.8039028064       -1.0140732128       -1.2411537758
 C          1.8894687833       -1.3215972967       -0.2422490909
 H          2.1559312517       -1.1337432744        0.7860069709
 N          4.0542492574       -0.4810030793       -0.9039860424
 S          4.2686356821        0.5327991794        0.4049864568
 O          5.5687461988        1.1247993319        0.1759227338
 O          4.1178324752       -0.2051297579        1.6333997814
 C          3.0088138743        1.7851526647        0.2595073534
 C          3.1251041489        2.6983531640       -0.7715151607
 C          2.1544003287        3.6750989776       -0.9151652587
 C          1.0872053056        3.7233319701       -0.0297646177
 C          0.9890446083        2.8044820608        1.0024204631
 C          1.9562668821        1.8230374584        1.1490283120
 H          1.8908418843        1.0927315029        1.9386844541
 H          0.1598622902        2.8238285366        1.6909221975
 H          0.3299160779        4.4837087331       -0.1422271981
 H          2.2300643547        4.3951216679       -1.7141628666
 H          3.9771997597        2.6406872632       -1.4292323321
 H          4.6307961648       -0.2132144793       -1.6874089811
 H          3.1882960925       -1.0289391266       -3.3506161723
 H          1.0002192853       -2.0187743719       -3.9095664536
 H         -0.6174031905       -2.5506952679       -2.1261159140
 H          0.1158877504       -1.8180327616        1.4970727370
 C         -0.4760260897       -3.7015297185        0.6927339437
 C          0.6159181215       -4.4889426448        1.3500227520
 C         -0.6975128308       -4.3006357494        2.0473621305
 H         -1.3641342415       -5.1455111127        2.1335739780
 H         -0.7339584282       -3.6285580016        2.8926143018
 H          0.8541254288       -5.4655437536        0.9574518348
 H          1.4716809437       -3.9452455299        1.7225127209
 H         -0.9928899672       -4.1559197163       -0.1421322555
