  62
        -98.93791529
 C          2.0887472599        0.9727676887       -0.0031049196
 C          2.5265209265       -0.3387062251       -0.2932347816
 C          3.8604816808       -0.7216657205        0.2147570523
 C          4.5684125426        0.1772580894        0.9237041361
 C          5.9488044251        0.0288851988        1.5065626893
 C          7.0557369181        0.1341636458        0.4452688651
 C          6.7863389258       -0.6393813373       -0.8426509602
 H          5.8500298651       -0.2899241833       -1.2814062833
 H          7.5854141089       -0.3976598253       -1.5484818170
 C          6.7404569412       -2.1580427650       -0.6917737837
 H          6.6343551223       -2.5805792319       -1.6942802941
 H          7.6920547174       -2.5067548165       -0.2843479826
 C          5.6082217243       -2.7103150882        0.1770259108
 H          5.5521398359       -3.7871757814       -0.0077080216
 H          5.8299134140       -2.5911738905        1.2341744235
 C          4.2279224186       -2.1426682799       -0.1389152835
 H          4.0351463161       -2.2463349964       -1.2129313390
 H          3.4719480967       -2.7703551702        0.3489025452
 H          7.9923827604       -0.2074644036        0.8889886283
 H          7.1716857788        1.1883162911        0.1819250119
 H          6.0753347668        0.8443335054        2.2221941474
 H          6.0243633563       -0.9058171352        2.0541978385
 O          4.0994078653        1.4316169007        1.1841117654
 C          2.8646909720        1.8601008066        0.7416464836
 O          2.5707511570        3.0273325093        1.0706466758
 H         -1.1801050522       -0.1274258033       -1.7160361397
 C         -1.2345266106       -0.1601953164       -0.6395472596
 C         -0.3444581731        0.5778985169        0.1229933730
 C         -0.4439699361        0.5128374666        1.5107971905
 C         -1.3941934298       -0.2863254788        2.1160570877
 C         -2.2683773475       -1.0393055406        1.3511218401
 C         -2.1836643407       -0.9744963265       -0.0325461045
 N         -3.0711869747       -1.7295168267       -0.8149801970
 S         -4.6859418694       -1.7643392368       -0.3867226235
 O         -4.8862582191       -2.6870743973        0.7026677385
 O         -5.3939230837       -2.0686536109       -1.6101584584
 C         -5.0532117112       -0.1029532191        0.1511132754
 C         -5.4363386459        0.1331479225        1.4553278259
 C         -5.6812048785        1.4368875742        1.8566329629
 C         -5.5353636889        2.4767321759        0.9520289383
 C         -5.1527431657        2.2230017828       -0.3564814465
 C         -4.9075467773        0.9218998875       -0.7631205593
 H         -4.6155822850        0.6905161473       -1.7747530186
 H         -5.0418319211        3.0336766752       -1.0586258705
 H         -5.7216738568        3.4913578905        1.2670875785
 H         -5.9806296323        1.6370130025        2.8728170792
 H         -5.5369354109       -0.7038081258        2.1269620403
 H         -2.9468840042       -1.6184894059       -1.8099666867
 H         -3.0020386163       -1.6849167108        1.8056206363
 H         -1.4535313493       -0.3297467190        3.1930347820
 H          0.2445894229        1.0953978468        2.1080806225
 C          0.7282753905        1.4516933419       -0.4796773224
 H          0.6081292551        2.4656443527       -0.0726528673
 C          0.6895662268        1.5257614014       -1.9911955366
 C         -0.2910255125        2.4334458565       -2.6696799438
 C          1.1686341846        2.7731758542       -2.6680002613
 H          1.7230159651        2.6788263345       -3.5897948500
 H          1.5079596972        3.5815761501       -2.0368019787
 H         -0.7388710279        2.1109282480       -3.5976456521
 H         -0.9459233231        3.0172975321       -2.0410862724
 H          0.9286444639        0.5803132304       -2.4642825909
 O          1.8447640895       -1.1649168480       -0.9557522402
