  62
        -98.93161077
 C         -2.3986232604       -0.8116965599        0.6979458513
 C         -3.4539128003       -0.8928144006       -0.2390936287
 C         -4.6551681205       -0.0733315706        0.0340197408
 C         -4.6770065906        0.7152323400        1.1236791603
 C         -5.7616231908        1.6527836001        1.5850798997
 C         -5.8221228109        2.9482003496        0.7613709190
 C         -5.7328942008        2.7510845488       -0.7492531109
 H         -5.6947864409        3.7410433985       -1.2115427715
 H         -4.7956742907        2.2459929488       -0.9899251006
 C         -6.8979807407        1.9873659783       -1.3743141605
 H         -6.7615781006        2.0203598377       -2.4583010505
 H         -7.8317824808        2.5041494083       -1.1420771909
 C         -7.0347863105        0.5201532785       -0.9602173297
 H         -7.7160308404        0.0439749280       -1.6714598195
 H         -7.4975815105        0.4265527290        0.0185523103
 C         -5.7337370304       -0.2744694814       -1.0036631492
 H         -5.9761996602       -1.3433832914       -0.9678781186
 H         -5.2528401104       -0.1230105419       -1.9768421592
 H         -4.9854770010        3.5822299299        1.0650378987
 H         -6.7481320310        3.4701500096        1.0088229386
 H         -5.5297488609        1.9106273207        2.6209029896
 H         -6.7221039207        1.1461174000        1.5778182300
 O         -3.6219124307        0.7845494206        1.9858369403
 C         -2.4800159506        0.0350305007        1.8070262408
 O         -1.6153571307        0.1966683513        2.6929327508
 O         -3.4308777902       -1.6117648012       -1.2735604183
 C         -1.1114304703       -1.6136752798        0.5876491318
 C         -0.1381104403       -0.9578037402       -0.3633789285
 C         -0.4056966303       -0.8564146210       -1.7242713686
 C          0.5090137397       -0.2613369114       -2.5740907888
 C          1.7039753196        0.2413070591       -2.0901674791
 C          1.9807503395        0.1456344399       -0.7331877190
 C          1.0620440296       -0.4555233798        0.1184315513
 H          1.2743551295       -0.5182038691        1.1776381413
 N          3.1864375494        0.6689807903       -0.2304586392
 S          4.5917283795        0.3134885800       -1.1015737890
 O          4.7100536095        1.2598002794       -2.1823226095
 O          4.5968162597       -1.0815521302       -1.4807499782
 C          5.8475420194        0.6292673209        0.1223100209
 C          6.3087598395       -0.4189605886        0.8961665916
 C          7.2676058394       -0.1660860779        1.8643504315
 C          7.7442276792        1.1240087622        2.0428629508
 C          7.2720743191        2.1654421317        1.2578535601
 C          6.3137685592        1.9195389110        0.2874039002
 H          5.9246831492        2.6951166506       -0.3513712502
 H          7.6476832090        3.1661288319        1.3981548196
 H          8.4908431092        1.3179347528        2.7966899507
 H          7.6389105995       -0.9742138475        2.4738314519
 H          5.9181874397       -1.4077402488        0.7154772921
 H          3.3071068894        0.4671622709        0.7528406909
 H          2.4276645496        0.6997181488       -2.7450780993
 H          0.2901524097       -0.1880356720       -3.6290833089
 H         -1.3408106002       -1.2368985414       -2.1053885184
 H         -0.6651758803       -1.5838582692        1.5910200718
 C         -1.3389556601       -3.0653474601        0.2128295727
 C         -0.2778298999       -4.0707301097        0.5394983733
 C         -1.5720639600       -4.0733877995        1.2955490932
 H         -2.2765522699       -4.8708070397        1.1131437036
 H         -1.5672901101       -3.7206565589        2.3169127430
 H         -0.0896463398       -4.8671956001       -0.1638870562
 H          0.6066997800       -3.7175934993        1.0481817231
 H         -1.8871617200       -3.1921200407       -0.7106865773
