  62
        -98.94544441
 C         -2.5930730240        0.0357382675        0.5159813357
 C         -2.5119246993        0.7622523122       -0.6965390638
 C         -2.0941765613        2.1629920848       -0.5733225157
 C         -1.7964668646        2.6681573444        0.6372327080
 C         -1.3141352896        4.0650784393        0.9182974291
 C          0.1947645964        4.2442709974        0.6973338913
 C          0.6370256140        4.3101981656       -0.7655293212
 H          0.0145153800        5.0266953539       -1.3031058214
 H          1.6585836305        4.6955285731       -0.7706286553
 C          0.6208233725        2.9580961533       -1.4922739592
 H          1.5374943423        2.8528166581       -2.0782894120
 H          0.6206943460        2.1496490048       -0.7570655908
 C         -0.5479820620        2.7647823790       -2.4588547596
 H         -0.4486067845        3.4601371514       -3.2961927019
 H         -0.4976254646        1.7471192277       -2.8547473525
 C         -1.9345128824        2.9587422958       -1.8338278850
 H         -2.6811719755        2.5987482460       -2.5464317665
 H         -2.1161230987        4.0156642393       -1.6396250622
 H          0.4875379852        5.1759513468        1.1876926998
 H          0.7188721628        3.4233641658        1.1940049520
 H         -1.8637966941        4.7780272655        0.3027528319
 H         -1.5367350210        4.2662333664        1.9684420182
 O         -1.9141591439        1.9447505682        1.7834531099
 C         -2.2796140441        0.6095251502        1.7468398283
 O         -2.3013815107        0.0502370204        2.8650386069
 O         -2.7679118527        0.2676222086       -1.8256247180
 C         -2.8742206661       -1.4555165129        0.4790359154
 C         -1.7808812809       -2.1315812048       -0.3172449831
 C         -2.0032703337       -3.1704041402       -1.2108509334
 C         -0.9448531518       -3.7220924247       -1.9138601788
 C          0.3445393655       -3.2512784427       -1.7495323766
 C          0.5772856147       -2.2098244721       -0.8560304606
 C         -0.4793784522       -1.6812859354       -0.1363082150
 H         -0.2880357033       -0.8882538488        0.5712965220
 N          1.8616224573       -1.6593398008       -0.7094337435
 S          2.2731927562       -0.8069887595        0.6834953797
 O          2.0824276073       -1.6401992797        1.8518602983
 O          1.6015597415        0.4673905609        0.6843899120
 C          4.0126716615       -0.5623272260        0.3822797423
 C          4.9304044224       -1.4419312543        0.9245052057
 C          6.2776066163       -1.2536187857        0.6580035237
 C          6.6812939896       -0.1966791321       -0.1438973537
 C          5.7485611267        0.6792640525       -0.6793709192
 C          4.4003465313        0.4972496081       -0.4156919669
 H          3.6384893322        1.1559009683       -0.7997444418
 H          6.0661067736        1.5020938591       -1.2992110378
 H          7.7300140828       -0.0521885289       -0.3499312215
 H          7.0053676354       -1.9299102040        1.0764906017
 H          4.5703858705       -2.2422656722        1.5509066767
 H          2.6027396254       -2.2788313540       -1.0057716419
 H          1.1625302442       -3.6733865044       -2.3127314437
 H         -1.1295281208       -4.5290738260       -2.6067168016
 H         -3.0033356444       -3.5429879896       -1.3617788049
 H         -2.8039172837       -1.8063571340        1.5202307568
 C         -4.2666012216       -1.7395470462       -0.0430014459
 C         -5.0209024690       -2.9442947917        0.4312357456
 C         -5.4319238568       -1.5765524721        0.8844220265
 H         -6.3458615646       -1.1540956467        0.4951337216
 H         -5.2154539187       -1.2861768775        1.9026506258
 H         -5.6585209251       -3.4622288722       -0.2692433199
 H         -4.5350368626       -3.5886372897        1.1486129651
 H         -4.3956268630       -1.4223296188       -1.0710549002
