  62
        -98.93642529
 C         -1.2865558333       -1.1095243278        0.7337461106
 C         -1.7099069829       -0.5697844043       -0.5074315785
 C         -2.5362298463        0.6470165071       -0.4226008363
 C         -2.7562609176        1.2199465800        0.7730098392
 C         -3.6185996406        2.4263428682        1.0043294016
 C         -5.0664368574        2.0193347073        1.3128358043
 C         -5.6463074597        1.0030883975        0.3286440445
 H         -5.1061261823        0.0590412543        0.4307949328
 H         -6.6796009952        0.8149370807        0.6284811648
 C         -5.6134616917        1.4491642909       -1.1399260496
 H         -6.5784523393        1.2187220081       -1.5962906068
 H         -5.4803524500        2.5302442431       -1.1952781827
 C         -4.5426112197        0.7613546892       -1.9891781086
 H         -4.7502415872        0.9819021673       -3.0395218285
 H         -4.6143893741       -0.3216572103       -1.8621014282
 C         -3.0958707589        1.1872479307       -1.7081541057
 H         -3.0275183834        2.2764695074       -1.7349802838
 H         -2.4670347838        0.7765379607       -2.5031199281
 H         -5.6848186057        2.9188481607        1.3171113556
 H         -5.0976982163        1.5820374129        2.3136839184
 H         -3.2189266112        2.9804619252        1.8557039132
 H         -3.5907102536        3.0639187282        0.1227924953
 O         -2.2384603977        0.7327639907        1.9309280694
 C         -1.5124282086       -0.4445572314        1.9410606773
 O         -1.1155783953       -0.7875344943        3.0752439085
 O         -1.4315751602       -1.0610674182       -1.6267997211
 C         -0.4778966685       -2.4008897384        0.8232405011
 C          0.8426167162       -2.1612431047        0.1343843044
 C          1.1541267661       -2.4553263971       -1.1869196478
 C          2.3813675441       -2.0939054248       -1.7193402272
 C          3.3194830954       -1.4178153870       -0.9626012553
 C          3.0131103900       -1.1011333272        0.3542878438
 C          1.7940695372       -1.4796127025        0.8897773651
 H          1.5580856644       -1.2169352523        1.9138952943
 N          3.9354062889       -0.3543788460        1.1201894751
 S          4.3297278341        1.1353267119        0.4553551292
 O          5.3615588913        0.9534586018       -0.5339107476
 O          4.6700241981        1.9853606038        1.5742788853
 C          2.8261651093        1.6872624721       -0.3320640412
 C          1.7456071944        1.9932829302        0.4712674859
 C          0.5496958916        2.3585388234       -0.1233994678
 C          0.4524127066        2.4032863310       -1.5053840313
 C          1.5458310991        2.0938553718       -2.2981106678
 C          2.7455188206        1.7294977031       -1.7086100228
 H          3.6189777601        1.4787632919       -2.2878572660
 H          1.4635148578        2.1281852311       -3.3723175723
 H         -0.4839014961        2.6772193932       -1.9639597612
 H         -0.3048946126        2.5936161682        0.4917221740
 H          1.8500254797        1.9492080000        1.5443428609
 H          3.6409470930       -0.2324205846        2.0792001105
 H          4.2705789544       -1.1141525400       -1.3689891065
 H          2.6024205073       -2.3345084882       -2.7479623153
 H          0.4339327639       -2.9354487614       -1.8236466767
 H         -0.2476290688       -2.5014596615        1.8952190342
 C         -1.3145411096       -3.6282882945        0.4914874433
 C         -1.7886703325       -4.0469112255       -0.8662804692
 C         -0.7599230117       -4.8662429183       -0.1475100341
 H         -1.0594127643       -5.8232024367        0.2536947586
 H          0.2593788325       -4.8390162247       -0.4986404567
 H         -2.7932112196       -4.4408043365       -0.9361590437
 H         -1.5088754790       -3.4493460115       -1.7170549506
 H         -2.0325698763       -3.7942419024        1.2922510556
