  62
        -98.93589000
 C         -2.3597192431       -0.7540683857        0.2314697425
 C         -2.4248893047        0.6616036283        0.3036191865
 C         -3.6035369538        1.2965876668       -0.2992171474
 C         -4.5366836669        0.5227848187       -0.8826185089
 C         -5.8149234897        1.0254814246       -1.4874111386
 C         -6.9500158503        1.0410841410       -0.4540276999
 C         -6.5731280500        1.7110674306        0.8672601488
 H         -5.8037160657        1.1145676549        1.3629283707
 H         -7.4578866929        1.6900959276        1.5071248757
 C         -6.0778615263        3.1572530070        0.7269437738
 H         -6.5599467783        3.7689654914        1.4923607221
 H         -6.3741426939        3.5584086810       -0.2428676062
 C         -4.5682480531        3.3301661561        0.9054598288
 H         -4.2498836068        2.8480653379        1.8333752036
 H         -4.3565414057        4.3982964599        1.0037441096
 C         -3.6954709372        2.7953510949       -0.2371237447
 H         -2.6740089282        3.1507124748       -0.0705738984
 H         -4.0476587059        3.1987047379       -1.1889400029
 H         -7.2403878911        0.0092841614       -0.2436882932
 H         -7.8082461213        1.5537436487       -0.8919561370
 H         -5.6535828361        2.0269897185       -1.8814177009
 H         -6.0913159947        0.3610766351       -2.3076671969
 O         -4.4384635889       -0.8273795941       -0.9434782329
 C         -3.3552816515       -1.5059940694       -0.3945994995
 O         -3.4195744613       -2.7395713049       -0.5386606247
 H          1.4260306976       -0.5887441741        1.0457254336
 C          1.2302531104       -1.1058478170        0.1183481206
 C         -0.0419892383       -1.5884061697       -0.1518818033
 C         -0.2734492307       -2.2289912375       -1.3658905233
 C          0.7504993794       -2.3795352108       -2.2826386487
 C          2.0161432946       -1.8891438718       -2.0132585541
 C          2.2587218578       -1.2488062648       -0.8035740143
 N          3.5462761134       -0.7772030702       -0.4930527061
 S          3.6956615291        0.6826052059        0.3463566585
 O          3.4361988088        0.4409763877        1.7429740411
 O          2.9035716006        1.7071646839       -0.2956438447
 C          5.4335732984        1.0041303058        0.1084719073
 C          6.3458932688        0.3307357550        0.8988450945
 C          7.6986532693        0.5561924480        0.7003848759
 C          8.1146955531        1.4458486043       -0.2791750439
 C          7.1875024445        2.1162489438       -1.0626563641
 C          5.8328114547        1.8942002437       -0.8704136640
 H          5.0755416902        2.3989607821       -1.4487485542
 H          7.5134833704        2.8101377303       -1.8206397612
 H          9.1681452397        1.6203640099       -0.4308817487
 H          8.4224454666        0.0394879446        1.3097036775
 H          5.9754858102       -0.3429171908        1.6536888867
 H          4.1634575406       -0.7930601489       -1.2944661120
 H          2.8116324224       -2.0023014744       -2.7342262070
 H          0.5589619081       -2.8783512825       -3.2208628589
 H         -1.2619408953       -2.6070797697       -1.5789342261
 C         -1.1437356571       -1.4093650064        0.8618356807
 H         -0.7839967859       -0.6756480501        1.6020662015
 C         -1.4694268517       -2.6897383011        1.6191416481
 C         -1.0229959368       -4.0503275610        1.1850349520
 C         -0.3860373655       -3.4016463315        2.3746585954
 H         -0.6068845595       -3.7854914559        3.3591024465
 H          0.6206440652       -3.0263116683        2.2616534298
 H         -0.4443423130       -4.1340993293        0.2792257808
 H         -1.7065039411       -4.8705601209        1.3417994159
 H         -2.4416632485       -2.6366604902        2.0988995592
 O         -1.5360102136        1.3637245023        0.8597709179
