  62
        -98.94261673
 C         -1.4576889609       -1.4492318392        0.2945736711
 C         -1.9565333105       -0.9660461995       -0.9401433492
 C         -2.8862119596        0.1712628013       -0.8512247199
 C         -3.2137824793        0.6680485222        0.3553946099
 C         -4.1003966184        1.8580019130        0.5804875392
 C         -3.2835105475        3.1560662724        0.6424876986
 C         -2.2845091073        3.3112726310       -0.5042906214
 H         -1.7806428965        4.2712037007       -0.3723607518
 H         -1.5210740179        2.5336982405       -0.4207860810
 C         -2.9149138972        3.2577764208       -1.9032925614
 H         -3.9884821671        3.4364978916       -1.8329170516
 H         -2.4921038366        4.0618946102       -2.5094675818
 C         -2.6703427282        1.9529532602       -2.6637144007
 H         -1.6010060883        1.7245669794       -2.6674646505
 H         -2.9727970680        2.1042525999       -3.7034594308
 C         -3.4240076691        0.7230873711       -2.1415567302
 H         -4.4871775190        0.9544497019       -2.0510322204
 H         -3.3079398397       -0.0752000794       -2.8807613098
 H         -3.9750338868        4.0004164929        0.6406931481
 H         -2.7316469475        3.1695461424        1.5844990186
 H         -4.8337917184        1.9150615531       -0.2215056609
 H         -4.6235514586        1.7225928438        1.5284855392
 O         -2.7321052298        0.1635376924        1.5188398102
 C         -1.8465519306       -0.9017780283        1.5184697008
 O         -1.4851729010       -1.2696638980        2.6530441710
 H          0.4426243401       -0.2171567311       -0.6537084194
 C          1.1933819395       -0.9961914117       -0.6757248590
 C          0.8789223785       -2.2684198912       -0.2245258484
 C          1.8743884877       -3.2416657520       -0.2640595978
 C          3.1419593480       -2.9458498632       -0.7307691179
 C          3.4485818790       -1.6724919837       -1.1797269385
 C          2.4604731297       -0.7015582929       -1.1613395590
 N          2.7803004907        0.6102066866       -1.5982881297
 S          3.5225946714        1.5397958266       -0.4172319601
 O          3.7032256024        2.8535753762       -0.9900897608
 O          4.7127039208        0.8534373859        0.0128024003
 C          2.3288072013        1.6092231282        0.9056058298
 C          1.4342447621        2.6599157989        0.9405063692
 C          0.4413681921        2.6626577302        1.9070092991
 C          0.3468547312        1.6080300907        2.8017119396
 C          1.2498183904        0.5574487000        2.7505603302
 C          2.2531142705        0.5549699687        1.7947768303
 H          2.9762605899       -0.2420187719        1.7276034708
 H          1.1532049097       -0.2671985996        3.4381013206
 H         -0.4413486889        1.5898648917        3.5380768196
 H         -0.2584652373        3.4817728907        1.9539774087
 H          1.5377134628        3.4565085285        0.2207410288
 H          1.9762430212        1.1149607270       -1.9454913300
 H          4.4338144492       -1.4138131846       -1.5309142786
 H          3.9009464774       -3.7127955038       -0.7445435874
 H          1.6496946069       -4.2379551117        0.0821299527
 C         -0.4800212218       -2.6033231299        0.3490887917
 H         -0.3383826121       -2.8228843895        1.4178472918
 C         -1.0605021327       -3.8385854998       -0.3205215277
 C         -0.8749104638       -5.1971130797        0.2830347930
 C         -2.2187537233       -4.5362775786        0.3254814326
 H         -3.0089866236       -4.9169096683       -0.3038223373
 H         -2.5647238131       -4.1461777879        1.2721730424
 H         -0.7376055144       -6.0391735201       -0.3782992166
 H         -0.3290768539       -5.2691651196        1.2120265031
 H         -1.0717453526       -3.7596611204       -1.4009914677
 O         -1.6394670608       -1.4422836603       -2.0618341590
