  62
        -98.93344138
 C         -2.0326069122       -1.0114533860        0.6597934186
 C         -1.9042618668       -0.2700924433       -0.5411202740
 C         -2.0498187467        1.1899051808       -0.4211744059
 C         -2.2328258005        1.7369940387        0.7928375500
 C         -2.4428958778        3.1982897104        1.0732457126
 C         -3.8818795544        3.6125068776        0.7047361558
 C         -3.9741929782        4.6048491412       -0.4544864351
 H         -5.0213430267        4.6544930962       -0.7600081777
 H         -3.6867074675        5.5955870851       -0.0966744433
 C         -3.1123440710        4.2795763769       -1.6779488686
 H         -3.4726064642        4.9055135676       -2.4970511463
 H         -2.0793358173        4.5756879993       -1.4894156819
 C         -3.1243698005        2.8149460969       -2.1340915831
 H         -3.1309516921        2.7989258301       -3.2257811015
 H         -4.0354680503        2.3161498442       -1.8031189488
 C         -1.9026334616        1.9922616596       -1.6841088576
 H         -1.6723804206        1.2518595801       -2.4562063152
 H         -1.0276664931        2.6424299368       -1.5920051022
 H         -4.3656810738        4.0570898391        1.5757129588
 H         -4.4443163948        2.7093900754        0.4591372806
 H         -1.7167496870        3.7822928373        0.5115236356
 H         -2.2621471668        3.3510751619        2.1377188959
 O         -2.3199329391        0.9960065687        1.9296792587
 C         -2.1977161924       -0.3828276012        1.8944262080
 O         -2.2544577465       -0.9291736987        3.0161856970
 O         -1.6822692545       -0.7912671307       -1.6648440028
 C         -1.8098311789       -2.5157602135        0.6901523152
 C         -0.5570307924       -2.8257184651       -0.0932174767
 C         -0.4831903978       -3.7523730223       -1.1235326879
 C          0.7004356983       -3.9246610371       -1.8212034963
 C          1.8191138359       -3.1698478123       -1.5225469712
 C          1.7574912070       -2.2482690961       -0.4823038374
 C          0.5853419121       -2.1067623208        0.2380685428
 H          0.5454408586       -1.3858374736        1.0435890347
 N          2.8754721523       -1.4663769981       -0.1376056261
 S          2.6017410068        0.0956489713        0.4449036317
 O          2.3262630126        0.0178081900        1.8595568482
 O          1.6220586446        0.7846952580       -0.3634926401
 C          4.2179636580        0.8086690817        0.1952556253
 C          4.4429917049        1.6132074829       -0.9055527159
 C          5.7104350985        2.1382336640       -1.1047236655
 C          6.7264962643        1.8480133067       -0.2067631634
 C          6.4855441325        1.0386114512        0.8937030338
 C          5.2203100337        0.5121344502        1.0996637098
 H          4.9817832150       -0.1126301105        1.9445111369
 H          7.2770869153        0.8170436638        1.5911280356
 H          7.7117191047        2.2574912786       -0.3641451630
 H          5.8991617999        2.7701549557       -1.9575352159
 H          3.6195722995        1.8155251808       -1.5718448071
 H          3.5893347786       -1.4710063515       -0.8538837146
 H          2.7302299532       -3.2845609348       -2.0898672167
 H          0.7440050295       -4.6417853338       -2.6269832609
 H         -1.3580044167       -4.3162046024       -1.4027870462
 H         -1.6068895145       -2.7470898799        1.7499256323
 C         -3.0133550312       -3.3529176008        0.2864700269
 C         -4.4056452164       -2.8148336203        0.4252028332
 C         -3.8267073061       -3.0533528649       -0.9352856596
 H         -4.2063418232       -3.8841156958       -1.5120934517
 H         -3.5341824300       -2.2028826776       -1.5296271533
 H         -5.1784456417       -3.4784397842        0.7833230978
 H         -4.5129175862       -1.7946555031        0.7653181984
 H         -2.8791130387       -4.4004563569        0.5385490231
