  62
        -98.94775253
 C          0.7818710155        1.2707908926        0.0225177313
 C          1.4899898584        0.6138069377        1.0559314493
 C          2.4066027635       -0.4475052217        0.6245909304
 C          2.4763478033       -0.7802873734       -0.6771411736
 C          3.3775065357       -1.8250160175       -1.2770060121
 C          4.7980936248       -1.3204899442       -1.5688609315
 C          5.6813390370       -1.1113325549       -0.3379284016
 H          6.7034340436       -0.9750576325       -0.6968523532
 H          5.6700495813       -2.0132174927        0.2747966065
 C          5.2969523212        0.1015800507        0.5211399540
 H          4.6564151725        0.7710538172       -0.0576864321
 H          6.1965671187        0.6649244934        0.7793374029
 C          4.5905084544       -0.2464605248        1.8316396755
 H          4.3312816541        0.6862534198        2.3392150785
 H          5.2714613975       -0.8032303827        2.4793987110
 C          3.3039028822       -1.0639437345        1.6551795713
 H          2.7663487179       -1.0677083283        2.6068581317
 H          3.5503263421       -2.0905537096        1.3854070310
 H          4.7293736277       -0.3860180828       -2.1303339217
 H          5.2806456224       -2.0596628267       -2.2123599427
 H          3.4299496573       -2.6923276831       -0.6194942602
 H          2.9192819286       -2.1234536358       -2.2216318652
 O          1.7065105198       -0.1871204872       -1.6271558963
 C          0.8725329935        0.8752054380       -1.3120084778
 O          0.2750391202        1.3662457088       -2.2880341683
 H         -1.5263497508        0.2123468126        0.4768936696
 C         -2.0936692233        1.0070139415        0.0148077139
 C         -1.5076333243        2.2572831870       -0.1363371149
 C         -2.2533170060        3.2745720012       -0.7182569716
 C         -3.5471335734        3.0354456126       -1.1473930721
 C         -4.1249707932        1.7890286317       -0.9980677151
 C         -3.3889399571        0.7645982813       -0.4113919814
 N         -3.9350295267       -0.5165845199       -0.2787324241
 S         -3.3935156105       -1.6082861143        0.8534300853
 O         -4.4184788355       -2.6310226054        0.8712792888
 O         -3.1132766954       -0.9806546979        2.1238421727
 C         -1.9144519229       -2.3022285575        0.1494519637
 C         -1.9437142106       -2.7096716149       -1.1692378844
 C         -0.8207613372       -3.3163942230       -1.7070519739
 C          0.3019642265       -3.5147154733       -0.9186331140
 C          0.3177707921       -3.0948299161        0.4018915070
 C         -0.7996118065       -2.4800362171        0.9431244152
 H         -0.8215943650       -2.1278716937        1.9630828441
 H          1.1912597982       -3.2416025963        1.0162267876
 H          1.1696672833       -4.0005207821       -1.3354310653
 H         -0.8248348176       -3.6357645425       -2.7367822212
 H         -2.8373079547       -2.5482556955       -1.7489281554
 H         -4.9143171260       -0.6112890236       -0.4993097718
 H         -5.1330398488        1.6031281218       -1.3354000884
 H         -4.1145204534        3.8327283859       -1.6030380849
 H         -1.8213109606        4.2541297418       -0.8405476464
 C         -0.1004822584        2.4544086156        0.3689223508
 H         -0.1368695710        2.4829603958        1.4691551076
 C          0.5431166929        3.7335064248       -0.1295366122
 C          0.3583307889        5.0210816652        0.6149540152
 C          1.6818122313        4.3195230885        0.6483355070
 H          2.5106930004        4.7502857208        0.1067915056
 H          1.9709103742        3.8127707007        1.5576598983
 H         -0.2478382820        4.9997625848        1.5080843669
 H          0.2808830746        5.9377440480        0.0497932485
 H          0.6052175127        3.7698570163       -1.2118026382
 O          1.3721268545        0.9080486568        2.2767706224
