  62
        -98.93910877
 C         -2.4788510424       -1.0362479659        0.3794872902
 C         -2.6780428261        0.1475111156        1.1385156318
 C         -3.9501137420        0.8474629575        0.9345989350
 C         -4.8617439141        0.3357407388        0.0882052740
 C         -6.2185397721        0.9131689806       -0.2108564021
 C         -6.2060279845        2.0141638793       -1.2800950705
 C         -5.6098059992        3.3489834257       -0.8316117222
 H         -5.8623238283        4.0856957836       -1.5967188937
 H         -6.0872493550        3.6660002477        0.0960185272
 C         -4.0856580796        3.3322789079       -0.6481826786
 H         -3.6514049600        4.2155028619       -1.1220382195
 H         -3.6657036783        2.4598098486       -1.1544262337
 C         -3.6216946888        3.3270919367        0.8086271697
 H         -3.9195576578        4.2601850568        1.2921844414
 H         -2.5296204096        3.2750219810        0.8206447601
 C         -4.1595557160        2.1539792613        1.6385363027
 H         -3.6054058627        2.1169231527        2.5797473547
 H         -5.2164474198        2.3020552744        1.8596319643
 H         -7.2416410726        2.1864805461       -1.5819168416
 H         -5.6615056620        1.6469550822       -2.1529838598
 H         -6.6617441617        1.3002159803        0.7070621496
 H         -6.8338524353        0.0873067013       -0.5739438532
 O         -4.6490759841       -0.8163257174       -0.5970557886
 C         -3.4546456611       -1.5168401495       -0.4945478844
 O         -3.4170661400       -2.5305784423       -1.2187659374
 O         -1.8320001368        0.5940165687        1.9600777379
 C         -1.1501692509       -1.7484310421        0.5659760202
 C         -0.1871610979       -1.4232430280       -0.5516427832
 C         -0.3910444418       -1.8833310584       -1.8489770801
 C          0.5215341659       -1.5895384664       -2.8452580222
 C          1.6587211402       -0.8514702137       -2.5676931660
 C          1.8652052095       -0.3769889453       -1.2777737659
 C          0.9394080492       -0.6593592776       -0.2827731117
 H          1.1085853804       -0.2760287645        0.7133854115
 N          2.9952762311        0.3967059697       -0.9695975057
 S          3.7033011051        0.2063082587        0.5519205101
 O          3.7340335605       -1.1939566625        0.9093766212
 O          3.0508767597        1.0905401489        1.4844843729
 C          5.3541646472        0.7933115180        0.2190976081
 C          5.6058514685        2.1509644817        0.2793200744
 C          6.8813778802        2.6089424239       -0.0104944353
 C          7.8779124225        1.7074789793       -0.3542541766
 C          7.6109958864        0.3475986111       -0.4078161527
 C          6.3372567975       -0.1171661672       -0.1204297259
 H          6.0860228149       -1.1655197630       -0.1394846557
 H          8.3888258425       -0.3508696547       -0.6711905101
 H          8.8697861974        2.0668757969       -0.5783578626
 H          7.0933861346        3.6650299475        0.0338183528
 H          4.8025279551        2.8117874798        0.5609214275
 H          3.6840627430        0.4016714679       -1.7094636241
 H          2.3766219201       -0.6364354243       -3.3447064152
 H          0.3516723430       -1.9512050282       -3.8482591803
 H         -1.2766159480       -2.4592159087       -2.0682562079
 H         -0.7289976412       -1.3281367433        1.4902614474
 C         -1.2797151389       -3.2491776436        0.7417988977
 C         -0.1206756778       -4.0056851081        1.3159923847
 C         -1.3704687173       -3.8218163427        2.1225817643
 H         -2.0107464589       -4.6759474774        2.2844314971
 H         -1.3439959024       -3.1315287711        2.9534639258
 H          0.0983007160       -4.9871273789        0.9242370855
 H          0.7562271377       -3.4389464464        1.5948065583
 H         -1.8605367802       -3.7281187918       -0.0353405610
