  62
        -98.93853141
 C         -2.3546898288        1.2370517523       -0.2510142269
 C         -2.3825855154       -0.0102798474        0.4143467051
 C         -3.3965872506       -0.9787405052       -0.0452600302
 C         -4.2253702445       -0.6473205729       -1.0524650555
 C         -5.3169302048       -1.4338180312       -1.7480502401
 C         -5.8712899572       -2.7162891408       -1.1330499196
 C         -6.6518672534       -2.5188815456        0.1658819263
 H         -7.5823914248       -1.9938176860       -0.0638067715
 H         -6.9138388912       -3.5036319205        0.5589634646
 C         -5.9323714110       -1.7254577422        1.2536605168
 H         -6.5985920119       -1.6639902159        2.1184061917
 H         -5.7581479364       -0.7042569899        0.9088250370
 C         -4.6083392017       -2.3203820205        1.7295075816
 H         -4.7595114168       -3.3566055753        2.0382483788
 H         -4.2893744715       -1.7532499866        2.6081764290
 C         -3.4571395894       -2.2756851628        0.7092262528
 H         -2.5138991231       -2.3562708492        1.2580424157
 H         -3.5031886841       -3.1170653710        0.0217463258
 H         -5.0751854672       -3.4415760422       -0.9923969984
 H         -6.5591415061       -3.1410109893       -1.8692952140
 H         -4.9235162051       -1.6700084017       -2.7430051689
 H         -6.1385346290       -0.7271295792       -1.9020917480
 O         -4.1452843634        0.5637896983       -1.6780263463
 C         -3.2224661600        1.5221057587       -1.3060729891
 O         -3.2754053499        2.5723400405       -1.9762311129
 O         -1.6040976144       -0.3183613916        1.3557978432
 C         -1.3473606397        2.3143157905        0.1205831642
 C          0.0253231081        1.8216356091       -0.2671451550
 C          0.4236132600        1.9100881062       -1.5984623409
 C          1.6449930809        1.4068340172       -2.0038262227
 C          2.4907337888        0.7953059557       -1.0938484410
 C          2.0942899899        0.6860257481        0.2313899567
 C          0.8763294175        1.2139331446        0.6415054143
 H          0.5767989449        1.1116027809        1.6722329229
 N          2.9388218737        0.0577569697        1.1621456985
 S          3.6515558341       -1.4013435729        0.7396171308
 O          2.8510688838       -2.1420521604       -0.2077851614
 O          3.9361172553       -2.0597679435        1.9962896118
 C          5.1911257257       -0.9109433064       -0.0115641340
 C          6.0100096458       -0.0438291075        0.6851812122
 C          7.2160800850        0.3376902953        0.1196441415
 C          7.5830497191       -0.1536818503       -1.1244456945
 C          6.7518680983       -1.0263276209       -1.8097348899
 C          5.5433982674       -1.4111078145       -1.2497576111
 H          4.8622868274       -2.0823302600       -1.7486349305
 H          7.0384270851       -1.4078855148       -2.7766349234
 H          8.5220574654        0.1453086229       -1.5627984272
 H          7.8647883423        1.0166383651        0.6492159774
 H          5.6893787509        0.3134362723        1.6494173838
 H          2.5402776280        0.0021387806        2.0886997838
 H          3.4387666722        0.3886681841       -1.4058249694
 H          1.9422495389        1.4866801140       -3.0384999257
 H         -0.2476164632        2.3668126160       -2.3128988461
 H         -1.5887984833        3.1797119205       -0.5107260008
 C         -1.4697073605        2.7228859895        1.5735026550
 C         -0.8218912992        3.9926483072        2.0351205619
 C         -2.3142861589        3.9073814113        1.9303227281
 H         -2.8952093905        3.8696078393        2.8397393157
 H         -2.8024354528        4.4339092022        1.1231589179
 H         -0.3763968352        4.0177087335        3.0178644045
 H         -0.2948558240        4.5780041620        1.2970544313
 H         -1.4871607182        1.8829444146        2.2567491062
