  62
        -98.94320169
 C          2.0058385560        1.1293547077        0.2006075235
 C          2.6220014257        0.2903016471        1.1654680050
 C          4.0284569323       -0.0560164170        0.9297565170
 C          4.6476334466        0.4283901180       -0.1621268579
 C          6.0656942931        0.1281132713       -0.5505830511
 C          6.1439942958       -1.0970783182       -1.4717146866
 C          5.3646771998       -2.3070527607       -0.9564090208
 H          4.2972895094       -2.0736198217       -0.9632912645
 H          5.5189166915       -3.1207920216       -1.6684255617
 C          5.7719838439       -2.7731978003        0.4484022043
 H          5.8640206674       -3.8613960634        0.4427347016
 H          6.7513114464       -2.3671599440        0.7043464488
 C          4.7721146806       -2.4170674377        1.5503346948
 H          3.7703051104       -2.7378679041        1.2529194380
 H          5.0421631175       -2.9795209036        2.4482179080
 C          4.7083282566       -0.9350783148        1.9413859888
 H          5.7141176641       -0.5683762125        2.1566243910
 H          4.1117229841       -0.8581878511        2.8551176737
 H          5.7413496594       -0.8221992094       -2.4493178788
 H          7.1940563706       -1.3660026783       -1.6000991270
 H          6.4677320357        0.9944608613       -1.0785954662
 H          6.6544128612       -0.0420945653        0.3487805602
 O          4.0264885196        1.2210638699       -1.0685895003
 C          2.6924197990        1.5793219530       -0.9278976904
 O          2.2696604418        2.2902856700       -1.8589578978
 O          2.0201252224       -0.1418246443        2.1859167729
 C          0.5506732741        1.4937995815        0.4433649699
 C         -0.3559818954        0.6084598963       -0.3771235254
 C         -0.5362418790        0.8022597324       -1.7422980070
 C         -1.3853313422       -0.0212826786       -2.4597222889
 C         -2.0772901994       -1.0436512905       -1.8338650319
 C         -1.9004801767       -1.2467086733       -0.4721787480
 C         -1.0442598610       -0.4233180258        0.2456981924
 H         -0.8985140593       -0.5928931603        1.3043782226
 N         -2.6351989645       -2.2624846015        0.1751271440
 S         -4.3032953389       -2.1039898672        0.0621455345
 O         -4.8392806406       -2.8068487152        1.2059587781
 O         -4.7394827389       -2.5687858021       -1.2298210492
 C         -4.5777352730       -0.3473737513        0.2078566834
 C         -4.8467344885        0.4015998675       -0.9194136754
 C         -4.9574035345        1.7775211534       -0.7978782452
 C         -4.7941576172        2.3772919124        0.4407676941
 C         -4.5307125589        1.6101676307        1.5654711246
 C         -4.4157250906        0.2346580543        1.4496263301
 H         -4.2152028828       -0.3944436414        2.3023866234
 H         -4.4083375762        2.0799902734        2.5285113296
 H         -4.8723071213        3.4490601008        0.5323966974
 H         -5.1633364731        2.3768034335       -1.6698743885
 H         -4.9666771437       -0.1033830178       -1.8635526663
 H         -2.3655996228       -2.3921743096        1.1402203082
 H         -2.7533542902       -1.6855269153       -2.3755400635
 H         -1.5129419003        0.1366559254       -3.5198488971
 H          0.0118600330        1.5880962578       -2.2375106973
 H          0.3744215470        1.2547247334        1.5008678114
 C          0.2375542628        2.9608883762        0.2264476185
 C         -1.0690163523        3.4938039382        0.7318163842
 C          0.2115312687        3.8870110505        1.4034187579
 H          0.5765235512        4.8946306533        1.2724003983
 H          0.4290711380        3.4686736634        2.3754582531
 H         -1.5859753342        4.2315330921        0.1384478682
 H         -1.7232695280        2.8032328897        1.2427588583
 H          0.6168777190        3.3540260931       -0.7069047788
