  62
        -98.94411340
 C          1.7004336185        1.4668617826        0.1956741253
 C          1.9689226830        0.7000379196       -0.9642049304
 C          2.8838559341       -0.4400726547       -0.7893978953
 C          3.3662551515       -0.7259316611        0.4329488423
 C          4.2813634165       -1.8713567278        0.7531213593
 C          3.5044731181       -3.1403975258        1.1297284025
 C          2.4043709820       -3.5156969468        0.1370593915
 H          1.9576256093       -4.4500800994        0.4832422069
 H          1.6187623602       -2.7587938740        0.1646928357
 C          2.8804097205       -3.6813654799       -1.3120126988
 H          3.9619128044       -3.8196643093       -1.3377314875
 H          2.4279588489       -4.5836873433       -1.7287065792
 C          2.4947339756       -2.5236889976       -2.2347846376
 H          2.6721932791       -2.8385090913       -3.2668513293
 H          1.4241549837       -2.3218488633       -2.1389474963
 C          3.2636996545       -1.2132159865       -2.0219536818
 H          4.3367904291       -1.4169655779       -2.0268009732
 H          3.0372665007       -0.5572980295       -2.8678796286
 H          3.0455824735       -2.9903613835        2.1095851747
 H          4.2159885444       -3.9638777860        1.2127965399
 H          4.9180416659       -2.0674942442       -0.1078131298
 H          4.9090788669       -1.5789291213        1.5967437737
 O          3.0433833725       -0.0033589356        1.5349377077
 C          2.2296790463        1.1132569019        1.4427305347
 O          2.0520209827        1.7026555005        2.5253055436
 H         -0.5716598526        1.3178760005       -1.6273406627
 C         -1.1847327410        1.5883331061       -0.7802507096
 C         -0.6308820221        2.3364936318        0.2480046635
 C         -1.4307312059        2.6620829892        1.3368353841
 C         -2.7503253116        2.2460255733        1.3925535222
 C         -3.2892117138        1.4720998376        0.3799918077
 C         -2.4915643232        1.1337579216       -0.7051680187
 N         -2.9915254652        0.2511554066       -1.6856145456
 S         -3.5019196343       -1.2271300906       -1.0714070710
 O         -3.1196033981       -2.2184452267       -2.0529011646
 O         -4.9123205174       -1.1523765591       -0.7799231092
 C         -2.6029202696       -1.4514601552        0.4587979805
 C         -1.2232604806       -1.3772253328        0.4484014120
 C         -0.5409389834       -1.4622202311        1.6507468205
 C         -1.2395612031       -1.6427787274        2.8342060039
 C         -2.6217350134       -1.7401487587        2.8254903954
 C         -3.3118188983       -1.6324532838        1.6288953268
 H         -4.3875854610       -1.6756046793        1.5779841670
 H         -3.1622000467       -1.8847803572        3.7468531645
 H         -0.6973328516       -1.7003901119        3.7647118818
 H          0.5337584395       -1.3663531774        1.6654473829
 H         -0.6952672186       -1.2406635703       -0.4832018461
 H         -2.3346675752        0.1000885623       -2.4393045170
 H         -4.3030171747        1.1067160957        0.4209999360
 H         -3.3601121832        2.5102555212        2.2426135568
 H         -1.0050069398        3.2265399385        2.1532020584
 C          0.8289655554        2.7170255082        0.2000454198
 H          1.0697325458        3.2414002481        1.1339359550
 C          1.1174511860        3.6491492661       -0.9604914352
 C          0.7324868925        5.0919103894       -0.8432648824
 C          2.1778927509        4.6964882314       -0.8136158810
 H          2.7960684771        4.9266707301       -1.6683747338
 H          2.7019867475        4.7490065034        0.1297670177
 H          0.3547808616        5.5965196288       -1.7192421149
 H          0.2771297561        5.4150218644        0.0805979932
 H          1.0172402561        3.1788789657       -1.9295809791
 O          1.4900223597        0.9340793247       -2.1076530905
