  62
        -98.94012449
 C         -2.4996947016       -1.1897797311        0.3640296210
 C         -2.6089577346       -0.4419712229       -0.8346981779
 C         -3.6167464280        0.6284244720       -0.8267368451
 C         -4.3576665923        0.8500487909        0.2733085452
 C         -5.4474437127        1.8774789819        0.4180657372
 C         -4.9418444201        3.2784723560        0.7883459541
 C         -4.2196641047        4.0265482676       -0.3329912754
 H         -4.8439116368        4.0291974246       -1.2269483353
 H         -4.1110024293        5.0632137156       -0.0080674075
 C         -2.8308595485        3.4678257912       -0.6741316913
 H         -2.4854751912        2.8281480632        0.1419591361
 H         -2.1173094132        4.2907954644       -0.7569421195
 C         -2.7675237762        2.6793178726       -1.9825398557
 H         -2.9799848595        3.3457153867       -2.8212772233
 H         -1.7505915702        2.2969270005       -2.1038633006
 C         -3.7318455971        1.4878205135       -2.0493498135
 H         -4.7561243196        1.8380951203       -2.1746021516
 H         -3.4604042354        0.8764228117       -2.9132319128
 H         -4.2814834929        3.1939096678        1.6548376884
 H         -5.8101813867        3.8687810049        1.0898297085
 H         -6.0252896253        1.9300689115       -0.5050470968
 H         -6.1015078697        1.5253106616        1.2187858379
 O         -4.2030506045        0.1266663457        1.4151378742
 C         -3.2557674919       -0.8818605762        1.4973595745
 O         -3.1807737503       -1.4204902285        2.6207622660
 H         -0.1116306901       -0.1634409772        1.1843946784
 C          0.4232090770       -0.7406803673        0.4377437185
 C         -0.1563839601       -1.9036865938       -0.0570760209
 C          0.5427012919       -2.6341707579       -1.0081865814
 C          1.7814674587       -2.2043316120       -1.4521061547
 C          2.3493574946       -1.0437132294       -0.9611544968
 C          1.6583194922       -0.3036915168       -0.0105808210
 N          2.2374832668        0.8833984400        0.4922812233
 S          3.6277763713        0.6661015057        1.4183283962
 O          3.5945350289       -0.5955433249        2.1240739900
 O          3.7329276272        1.8548708822        2.2365778553
 C          4.9463633511        0.6580897888        0.2233813360
 C          5.1483160722        1.7949212010       -0.5347911132
 C          6.1755734229        1.8038782560       -1.4648371619
 C          6.9798536236        0.6840269144       -1.6176414717
 C          6.7654861166       -0.4481481473       -0.8463986894
 C          5.7386780849       -0.4645386017        0.0847847190
 H          5.5299129914       -1.3226761557        0.7031130580
 H          7.3917455936       -1.3174450928       -0.9667096752
 H          7.7788584282        0.6940475743       -2.3421093230
 H          6.3456698061        2.6822518056       -2.0663734062
 H          4.5035970473        2.6440483856       -0.3801224420
 H          1.5821640386        1.4493426652        1.0134767769
 H          3.3089935948       -0.7005769234       -1.3120343487
 H          2.3095463069       -2.7803122680       -2.1965346458
 H          0.1102908047       -3.5319206156       -1.4178321406
 C         -1.4941259444       -2.3185979183        0.5069777221
 H         -1.3638734984       -2.4463659330        1.5954461755
 C         -1.9853400915       -3.6565487466       -0.0270668751
 C         -3.4494670945       -3.9663180256       -0.1127565894
 C         -2.6470579503       -3.7880658837       -1.3646915876
 H         -2.4295254673       -4.6625803761       -1.9602369943
 H         -2.7841374329       -2.8878487509       -1.9420416499
 H         -4.1447891616       -3.1883249839        0.1681509618
 H         -3.7774427952       -4.9596695106        0.1547476448
 H         -1.3432775509       -4.4749665348        0.2839668796
 O         -1.9143292065       -0.6472523317       -1.8618209276
