  62
        -98.93811216
 C         -1.5369630690       -1.3636757720       -0.3034797598
 C         -2.8372125645       -1.4191055920        0.2560860800
 C         -3.7767996420       -0.3807172942       -0.1862601656
 C         -3.3786105100        0.5360346870       -1.0864899678
 C         -4.2157810435        1.6377234129       -1.6803989179
 C         -4.6876167870        2.7336494223       -0.7050632515
 C         -6.0842064639        2.4971045669       -0.1171409561
 H         -6.6132361053        3.4513776947       -0.0749316052
 H         -6.6478750620        1.8573073180       -0.7973039093
 C         -6.1234432168        1.9028057014        1.2941115701
 H         -5.9033301690        2.6900677641        2.0187716232
 H         -7.1425171592        1.5585215770        1.4832230338
 C         -5.1541090326        0.7512408339        1.5621287498
 H         -4.1410743687        1.1437793012        1.6785799233
 H         -5.4204673695        0.2976180861        2.5188763205
 C         -5.1261455594       -0.3359082479        0.4697591922
 H         -5.9070076981       -0.1606716307       -0.2686562327
 H         -5.2893176197       -1.3182322559        0.9174398915
 H         -3.9538009762        2.8524123093        0.0916452490
 H         -4.7094876670        3.6685548497       -1.2672257971
 H         -5.0834797538        1.1922844185       -2.1721326566
 H         -3.5921629836        2.0919544122       -2.4531192034
 O         -2.1238501676        0.5443922052       -1.6124267238
 C         -1.1702897114       -0.3854640888       -1.2259824919
 O         -0.0631349181       -0.2320054735       -1.7755712846
 O         -3.1959824618       -2.2965782365        1.0859707133
 C         -0.5062003030       -2.3810087508        0.1571408935
 C          0.5325905811       -1.6709582467        0.9912174048
 C          0.1418445283       -1.1537121269        2.2253671762
 C          1.0410718463       -0.4823343707        3.0293308880
 C          2.3499426501       -0.3046992826        2.6143564291
 C          2.7499910550       -0.8128899672        1.3853561907
 C          1.8450584906       -1.4959358365        0.5812668724
 H          2.1819026779       -1.8679689040       -0.3716294104
 N          4.0818320990       -0.6616769330        0.9506798889
 S          4.3735036570        0.1210141174       -0.5029730565
 O          3.8555698871       -0.6590938173       -1.5946669073
 O          5.8023615629        0.3546542434       -0.5068836728
 C          3.5176086025        1.6766188683       -0.3331631398
 C          4.2109785740        2.7467375839        0.2002774781
 C          3.5413586312        3.9384717225        0.4223141080
 C          2.1913605467        4.0365976354        0.1190781179
 C          1.5117802277        2.9528478152       -0.4140726969
 C          2.1758319734        1.7569943764       -0.6441128296
 H          1.6637246994        0.9050896922       -1.0644080730
 H          0.4622712379        3.0201829654       -0.6559756930
 H          1.6659189804        4.9619329440        0.2962546519
 H          4.0696301342        4.7839875694        0.8327630675
 H          5.2605201970        2.6265700324        0.4158069664
 H          4.6921869419       -0.2758434093        1.6584176990
 H          3.0576943256        0.2189135013        3.2391140298
 H          0.7233955070       -0.0919606654        3.9841762554
 H         -0.8824736066       -1.2913078050        2.5433917632
 H         -1.0558654082       -3.0660461849        0.8188379687
 C          0.0656273297       -3.1777319276       -0.9942559404
 C          0.7196199483       -4.4979494849       -0.7205187624
 C         -0.6107479325       -4.4487500911       -1.4084301567
 H         -0.6581540262       -4.6877344235       -2.4603119037
 H         -1.4852913589       -4.7528455031       -0.8517447262
 H          1.5898580602       -4.7701833303       -1.2983825979
 H          0.7484169894       -4.8369979914        0.3040896898
 H          0.4828263365       -2.5594493279       -1.7805241204
