  62
        -98.94260532
 C          1.2143518891        1.6291846703        0.2003209309
 C          1.6215986254        0.6594796203        1.1437960800
 C          2.8309574436       -0.1173876430        0.8230081707
 C          3.4582855141        0.0981891508       -0.3483705929
 C          4.7195253307       -0.5020047506       -0.9347043027
 C          5.3818529924       -1.7123749209       -0.2837367558
 C          4.5936828355       -3.0162969852       -0.4176748558
 H          4.6516867843       -3.3489973915       -1.4571866792
 H          5.0753638042       -3.7760616943        0.2016945308
 C          3.1143352819       -2.9402013509       -0.0481272296
 H          2.5980249505       -2.2318129228       -0.6998893646
 H          2.6658103085       -3.9187785596       -0.2421947518
 C          2.8147701358       -2.5792260643        1.4044293896
 H          3.2993341613       -3.2960050564        2.0711893304
 H          1.7327991767       -2.6714691928        1.5384704316
 C          3.2230518619       -1.1602050437        1.8302912466
 H          4.2860420989       -1.1079038318        2.0523813317
 H          2.6822308522       -0.9167330248        2.7499145248
 H          5.6055991147       -1.5014626890        0.7578822560
 H          6.3403420315       -1.8546783252       -0.7902674167
 H          4.4812296918       -0.7408197555       -1.9763366391
 H          5.4466007720        0.3171759658       -0.9659374653
 O          3.0090226409        1.0260536681       -1.2446807708
 C          1.8763026197        1.7896431209       -1.0147150679
 O          1.5770718013        2.5570422673       -1.9494990183
 O          0.9989943785        0.4506226638        2.2211411350
 C         -0.0384175764        2.4392064515        0.4719138232
 C         -1.1373248664        2.0608613275       -0.4928484414
 C         -2.0711678343        2.9671019820       -0.9804156247
 C         -3.0732768104        2.5442457037       -1.8369470683
 C         -3.1826638320        1.2159471452       -2.2072366000
 C         -2.2554092638        0.3008745152       -1.7215303735
 C         -1.2460328890        0.7319316882       -0.8768166837
 H         -0.5161795989        0.0171255309       -0.5316490965
 N         -2.3165913228       -1.0554914478       -2.0711140745
 S         -1.8525491934       -2.2286815657       -0.9733671977
 O         -0.4203192462       -2.2420822945       -0.8207798502
 O         -2.4428458941       -3.4451733315       -1.4916380530
 C         -2.6670775714       -1.7761112935        0.5479988287
 C         -4.0376289602       -1.9503223382        0.5984564060
 C         -4.7242967560       -1.5715117942        1.7393115945
 C         -4.0325236687       -1.0198969549        2.8076378545
 C         -2.6582188373       -0.8564101833        2.7440303846
 C         -1.9641827495       -1.2372767821        1.6053849051
 H         -0.8945899133       -1.1112723003        1.5406535039
 H         -2.1100751734       -0.4287370053        3.5685113067
 H         -4.5656472360       -0.7187658683        3.6956008051
 H         -5.7929076567       -1.7036831873        1.7921265104
 H         -4.5357922259       -2.3945607036       -0.2480007145
 H         -3.1322714097       -1.3285100530       -2.5984068968
 H         -3.9670588719        0.8897850777       -2.8726302502
 H         -3.7861778954        3.2600666300       -2.2169565746
 H         -2.0093689764        4.0048995750       -0.6966580171
 H         -0.3662387000        2.1366935319        1.4789041923
 C          0.2658065630        3.9227292737        0.4853578193
 C         -0.4974492452        4.8455318246        1.3867976872
 C          0.9309664050        4.5125742831        1.6919761356
 H          1.6843709511        5.2718627094        1.5457392003
 H          1.1374169500        3.8477524005        2.5181474590
 H         -0.7247271718        5.8397957778        1.0327727285
 H         -1.2612371958        4.4134933818        2.0155079415
 H          0.5750070997        4.2915320427       -0.4859100942
