  62
        -98.94463238
 C          1.9893083467        0.7811654522        0.5450575958
 C          1.9801831293        0.0804367141       -0.6847327777
 C          2.0874599489       -1.3812622828       -0.5895640035
 C          2.1243859526       -1.9612886184        0.6235213094
 C          2.2643426857       -3.4361042460        0.8655957470
 C          3.7391679600       -3.8435266136        0.9930526539
 C          4.6271309986       -3.3045088808       -0.1284097705
 H          4.6675165346       -2.2153137661       -0.0563236844
 H          5.6379575634       -3.6774713996        0.0494592681
 C          4.1756510913       -3.7016640868       -1.5407016971
 H          3.4910829992       -4.5486744276       -1.4859189414
 H          5.0493943415       -4.0255224184       -2.1099001961
 C          3.5189256985       -2.5723105887       -2.3366851221
 H          3.4369168485       -2.8930043759       -3.3785015110
 H          4.1603099590       -1.6878227113       -2.3152178868
 C          2.1155530451       -2.1586644584       -1.8750351606
 H          1.6945692111       -1.4909024774       -2.6325949830
 H          1.4723225631       -3.0384095129       -1.8039712075
 H          3.7949337014       -4.9333884567        1.0132047911
 H          4.1202548349       -3.4650804236        1.9443171341
 H          1.7938549266       -3.9762609159        0.0461429353
 H          1.7442097916       -3.6807272698        1.7935520230
 O          2.0883943102       -1.2573803622        1.7851344244
 C          2.0194230628        0.1259274251        1.7742611798
 O          1.9956132355        0.6501652849        2.9082683155
 O          1.8946868637        0.6478737299       -1.8058514702
 C          1.8499555643        2.2933055045        0.5496029623
 C          0.5626928781        2.6681042653       -0.1454565906
 C          0.4611977379        3.6830303304       -1.0874530368
 C         -0.7473242745        3.9344903671       -1.7145277960
 C         -1.8683627762        3.1789152019       -1.4264882472
 C         -1.7815497277        2.1753540687       -0.4670128657
 C         -0.5786076622        1.9443854441        0.1769753460
 H         -0.5211049769        1.1610550384        0.9201866443
 N         -2.9064467493        1.4037994525       -0.1249183300
 S         -2.6671042047       -0.1935913152        0.3656647422
 O         -2.3253160675       -0.2007114491        1.7674337539
 O         -1.7517420373       -0.8711603519       -0.5247419508
 C         -4.3209552083       -0.8285813358        0.1565735213
 C         -5.2740725376       -0.5087764794        1.1054142775
 C         -6.5699727346       -0.9689999640        0.9348679949
 C         -6.8899112819       -1.7366649809       -0.1753926987
 C         -5.9226561623       -2.0508488036       -1.1180211059
 C         -4.6246272042       -1.5921998502       -0.9543147367
 H         -3.8371455344       -1.8148738643       -1.6564784879
 H         -6.1730710420       -2.6500746224       -1.9784874445
 H         -7.8989973918       -2.0944137423       -0.3054838223
 H         -7.3237575672       -0.7285215766        1.6670241363
 H         -4.9747722679        0.0819966815        1.9553914947
 H         -3.6511745667        1.4743339288       -0.8052182111
 H         -2.8024737832        3.3605447197       -1.9357043693
 H         -0.8115065959        4.7195034754       -2.4526927937
 H          1.3307347077        4.2662450429       -1.3425803051
 H          1.7695887811        2.5893808753        1.6064160612
 C          3.0772536420        2.9450383843       -0.0521179526
 C          3.5027205581        4.3109397762        0.3936461131
 C          4.2990580168        3.1083642731        0.7994041540
 H          5.2670986239        2.9514604234        0.3478912373
 H          4.2351079793        2.7706587391        1.8239123181
 H          3.9291454874        4.9823052950       -0.3362490413
 H          2.9045036481        4.7986493769        1.1483755405
 H          3.2228666853        2.6729845709       -1.0912057735
