  62
        -98.93136783
 C          2.3588038138        0.7488960265       -0.0094370321
 C          3.5460300183        0.8415002574        0.7504662106
 C          4.7378943521        0.1668009356        0.2037916325
 C          4.6278169578       -0.5149983959       -0.9507598817
 C          5.6890121417       -1.2822806496       -1.6983370374
 C          6.6056195251       -2.1849291379       -0.8579329855
 C          8.0416072072       -1.6677087667       -0.7568414709
 H          8.7023462336       -2.5108476650       -0.5431526062
 H          8.3341363379       -1.2627836868       -1.7278408373
 C          8.2767226750       -0.6121344826        0.3222087860
 H          9.2925712584       -0.2305263589        0.1953134560
 H          8.2281467113       -1.0843166945        1.3059013700
 C          7.3038278590        0.5686857571        0.3060844815
 H          7.7898316041        1.4076849726        0.8086556025
 H          7.1023053992        0.8844384682       -0.7167778416
 C          5.9835315744        0.2881585017        1.0389627872
 H          6.0826452373       -0.6103849800        1.6552788694
 H          5.7692178725        1.1050856495        1.7352333314
 H          6.1811290962       -2.3223756523        0.1354754679
 H          6.6340452674       -3.1662053668       -1.3344681194
 H          6.2914554308       -0.5732074063       -2.2713977164
 H          5.1412643124       -1.8848334121       -2.4264090092
 O          3.4577504429       -0.5800789919       -1.6491136987
 C          2.3017390098        0.0400340054       -1.2082549808
 O          1.3184535131       -0.1109232021       -1.9571746127
 O          3.6113308392        1.4628813753        1.8464405358
 C          1.0964897026        1.4126441784        0.5105438897
 C          0.0403310040        0.3613742070        0.7495264503
 C          0.3530954601       -0.7175354496        1.5733435300
 C         -0.5707102578       -1.7152594731        1.8138576105
 C         -1.8283052468       -1.6621323166        1.2380248945
 C         -2.1554092812       -0.5864036220        0.4252875858
 C         -1.2269202175        0.4234189710        0.1943634217
 H         -1.4960176546        1.2521678726       -0.4415862767
 N         -3.4226283770       -0.5312133249       -0.1792975561
 S         -4.7589096299       -1.0187556406        0.7288631101
 O         -4.7045571087       -0.4306594413        2.0487254636
 O         -4.8449383635       -2.4571700703        0.6860232017
 C         -6.0889501471       -0.3052063801       -0.2179121495
 C         -6.5394516743       -0.9752381524       -1.3396081168
 C         -7.5570783388       -0.4110284460       -2.0921744844
 C         -8.1034551919        0.8063925238       -1.7134250903
 C         -7.6413231992        1.4663437786       -0.5846890276
 C         -6.6227965010        0.9084510287        0.1719245137
 H         -6.2384718660        1.3812708532        1.0614910546
 H         -8.0700667090        2.4110335676       -0.2913217809
 H         -8.8965745377        1.2422742295       -2.3001942083
 H         -7.9207464025       -0.9217910829       -2.9691479162
 H         -6.0912624668       -1.9224682520       -1.5903867230
 H         -3.5894787433        0.3494853795       -0.6459385494
 H         -2.5579651630       -2.4362710163        1.4131952057
 H         -0.3115772022       -2.5462877414        2.4531506046
 H          1.3369798589       -0.7636102827        2.0206936910
 H          1.3731015827        1.8438398911        1.4839207087
 C          0.6614963578        2.5308076278       -0.4121380869
 C         -0.1606199897        3.6665319211        0.1181573694
 C          1.2762167207        3.8869678565       -0.2454234782
 H          1.5034521497        4.4619507682       -1.1305001337
 H          1.9945171782        4.0111652506        0.5516605073
 H         -0.9195621140        4.0963664061       -0.5181281819
 H         -0.4214420622        3.6470438026        1.1655905005
 H          0.4748564898        2.1881942646       -1.4237329565
