  62
        -98.94383565
 C         -1.9585218151       -0.9289667173       -0.3681769122
 C         -0.9646965292       -1.5037217691       -1.1900273940
 C         -0.1220074895       -2.5467017558       -0.5808023481
 C         -0.3218397636       -2.8714108951        0.7083385346
 C          0.4540553524       -3.8600340669        1.5352317891
 C          1.5997889764       -3.1607909553        2.2880507257
 C          2.9194153447       -3.0991862185        1.5218368182
 H          3.6140286704       -2.5047441687        2.1200690529
 H          3.3351009677       -4.1053355077        1.4301797701
 C          2.8081583668       -2.4691010197        0.1317474077
 H          3.7952593901       -2.1005711820       -0.1556897072
 H          2.1487221099       -1.6024634098        0.1983419017
 C          2.3075168609       -3.4490507027       -0.9399374967
 H          2.9890077017       -3.4271292880       -1.7927844216
 H          2.3462978607       -4.4619358921       -0.5390998490
 C          0.9019488075       -3.1698027714       -1.4917176773
 H          0.9744919812       -2.4801005397       -2.3386765452
 H          0.4861497485       -4.1028022923       -1.8878423115
 H          1.7735836625       -3.6827325371        3.2316235957
 H          1.2769493256       -2.1431215564        2.5263590247
 H         -0.2466281725       -4.2683633477        2.2667190636
 H          0.8278619081       -4.6715000856        0.9171152291
 O         -1.2804805324       -2.2814348619        1.4725683875
 C         -2.0930808809       -1.2801284844        0.9750466773
 O         -2.8939051797       -0.8069431437        1.8051941555
 H         -0.3807444524        1.1264583157       -0.5207705297
 C         -1.1030682181        1.7505396878       -0.0207742248
 C         -2.4545938191        1.4575396287       -0.1525343505
 C         -3.3756977928        2.2915527468        0.4646725351
 C         -2.9397284552        3.3585591225        1.2333421457
 C         -1.5912255457        3.5912072055        1.4313740487
 C         -0.6611021382        2.7695287835        0.8023626755
 N          0.7183647386        2.9447170796        0.9872356239
 S          1.7454742758        1.6177833869        1.1205848336
 O          1.0234677793        0.3924639566        1.3584323576
 O          2.7046458796        2.0040495158        2.1360699297
 C          2.5877449611        1.5877300331       -0.4504718485
 C          2.1831620709        0.7423627843       -1.4631487431
 C          2.8663314165        0.7618896080       -2.6693179406
 C          3.9374003245        1.6231557423       -2.8454796900
 C          4.3343610990        2.4673750350       -1.8191642370
 C          3.6555899274        2.4507094749       -0.6122492252
 H          3.9398943293        3.0773051086        0.2167039107
 H          5.1695495399        3.1352250599       -1.9556231635
 H          4.4652248446        1.6332261024       -3.7859994923
 H          2.5485183282        0.1025529680       -3.4613774749
 H          1.3489254568        0.0752914205       -1.3121768559
 H          0.9620849627        3.6549797439        1.6620491705
 H         -1.2579075290        4.3937397019        2.0719968357
 H         -3.6636511875        4.0001766817        1.7129297905
 H         -4.4309799944        2.0979030912        0.3629116731
 C         -2.8084520543        0.2058460048       -0.9185663050
 H         -2.4919697430        0.3324743260       -1.9643962033
 C         -4.2805439765       -0.1390361867       -0.8861950147
 C         -5.2251407044        0.5053624968       -1.8552277635
 C         -4.8646113288       -0.9407385197       -2.0093432989
 H         -5.6081096315       -1.6878278306       -1.7755989745
 H         -4.2025343032       -1.2214558370       -2.8153328938
 H         -4.8119314461        1.2080834098       -2.5627106034
 H         -6.2208858468        0.7509704783       -1.5184449177
 H         -4.6361310796       -0.3494432044        0.1160352318
 O         -0.7757523490       -1.1487399826       -2.3877463436
