  62
        -98.93865538
 C         -2.1260348359       -0.9335096793        0.0025691335
 C         -2.8944457534       -0.2898937239        0.9992314935
 C         -3.5991341646        0.9379535222        0.5936080519
 C         -3.4537761685        1.3954929290       -0.6619968951
 C         -4.0308355399        2.6450870969       -1.2798387339
 C         -5.4898202385        2.9916668972       -0.9543343352
 C         -6.4162276661        1.7819145100       -0.7635178104
 H         -7.3001816999        1.9099493776       -1.3908946956
 H         -5.9129737706        0.8707865558       -1.0915219851
 C         -6.8868648464        1.6129115114        0.6829624338
 H         -7.1538584499        2.5941663715        1.0812635018
 H         -7.7916026139        1.0004619053        0.6884953411
 C         -5.8842962302        0.9468459157        1.6242807179
 H         -5.7781815843       -0.1098378686        1.3644037026
 H         -6.2939660359        0.9883061591        2.6363203318
 C         -4.4769469227        1.5659290606        1.6381649536
 H         -4.5197647781        2.6472261327        1.5320791346
 H         -4.0153650168        1.3287806500        2.6007508148
 H         -5.8572046010        3.6062579024       -1.7779120386
 H         -5.5264751619        3.6125404653       -0.0603083031
 H         -3.9197284470        2.5040765899       -2.3577911401
 H         -3.3907886198        3.4875922627       -1.0004265946
 O         -2.6797007977        0.7558753220       -1.5852374143
 C         -2.0034420006       -0.4168265531       -1.2864249609
 O         -1.3454357668       -0.8868096204       -2.2333570411
 O         -2.9751566723       -0.7118240347        2.1847405374
 C         -1.3727778374       -2.2034534830        0.3544774172
 C          0.1074579996       -1.9968458069        0.1450559770
 C          0.9207550871       -2.8962730189       -0.5309065122
 C          2.2680225146       -2.6287608119       -0.7048791984
 C          2.8339266629       -1.4702500891       -0.2061251156
 C          2.0310181422       -0.5668496345        0.4781940834
 C          0.6840831990       -0.8393662325        0.6542288794
 H          0.0594194635       -0.1300697828        1.1845253125
 N          2.5981704309        0.6108265162        1.0010340285
 S          3.4601735277        1.5925235571       -0.0576404989
 O          3.3812078931        2.9201568521        0.5136072942
 O          2.9961885160        1.4487826183       -1.4180679282
 C          5.1327426297        0.9990449632        0.0878919046
 C          5.7126433463        0.9863879352        1.3414940487
 C          7.0154881474        0.5326699435        1.4710257305
 C          7.7131315818        0.1044412642        0.3512311380
 C          7.1177614684        0.1263925932       -0.9006922319
 C          5.8141744788        0.5782363237       -1.0371855713
 H          5.3074320473        0.6083765803       -1.9887782659
 H          7.6613817218       -0.2065768617       -1.7701883070
 H          8.7270438195       -0.2484592635        0.4546146895
 H          7.4817670294        0.5141278108        2.4428620258
 H          5.1368741384        1.3314238392        2.1839385740
 H          1.9423751846        1.1676038812        1.5307140684
 H          3.8805111064       -1.2548943644       -0.3469845674
 H          2.8861401273       -3.3332732428       -1.2400997863
 H          0.4980995209       -3.8020301774       -0.9332842321
 H         -1.5484035186       -2.3592140299        1.4296142146
 C         -1.9372214671       -3.3836356951       -0.4076178886
 C         -1.8609094243       -4.7640724470        0.1710553562
 C         -3.1766017906       -4.0502069133        0.1072036936
 H         -3.9151219838       -4.3863312943       -0.6050885525
 H         -3.5986743099       -3.6689755861        1.0257347638
 H         -1.6978697240       -5.5950945418       -0.4983404398
 H         -1.3924347006       -4.8756095045        1.1370337213
 H         -1.8398516652       -3.2688080853       -1.4814991364
