  62
        -98.94299073
 C          2.6802132296        1.2044651494        0.1312346524
 C          2.6960776362        0.2105028793       -0.8764233823
 C          3.8877254695       -0.6499201994       -0.9043995616
 C          4.8754172351       -0.4392702643       -0.0152323949
 C          6.1148887055       -1.2770042177        0.1038954516
 C          5.9141109283       -2.4252361463        1.1030523091
 C          4.6311192377       -3.2250537957        0.8762716925
 H          4.6111216621       -4.0244872137        1.6201457254
 H          3.7698235706       -2.5823041636        1.0727001311
 C          4.4998628770       -3.8302813714       -0.5283144403
 H          5.4762249686       -3.8547307727       -1.0136663564
 H          4.1589612113       -4.8633734315       -0.4336015676
 C          3.4999387694       -3.1130498276       -1.4372784471
 H          3.3246601773       -3.7429745802       -2.3134235994
 H          2.5447698060       -3.0021218616       -0.9175295329
 C          3.9332059216       -1.7323108149       -1.9458029363
 H          4.9277845574       -1.7987005446       -2.3914024503
 H          3.2266303349       -1.4282642151       -2.7235905642
 H          5.8817711379       -2.0051160729        2.1110392724
 H          6.7763313198       -3.0916316382        1.0406000053
 H          6.3742640382       -1.6744818923       -0.8753429124
 H          6.9284823196       -0.6399505714        0.4548213565
 O          4.8337011756        0.5428504478        0.9217822540
 C          3.7333761798        1.3771120286        1.0288265763
 O          3.8101085589        2.2178569253        1.9479181986
 H         -0.9352736029        2.1776981960       -1.0799975558
 C         -0.9134541772        1.4614003332       -0.2735719237
 C          0.2324967852        1.3137301361        0.4901912119
 C          0.2221109097        0.3866342491        1.5296694555
 C         -0.8974728825       -0.3815631974        1.7813802443
 C         -2.0341161560       -0.2443214822        1.0029493679
 C         -2.0404334699        0.6852429630       -0.0266396426
 N         -3.1838642421        0.8248288705       -0.8273131316
 S         -4.6949655993        0.8933786037       -0.1077417434
 O         -5.5347593254        1.5783406484       -1.0660451152
 O         -4.6270707280        1.4718320254        1.2141574016
 C         -5.2039154803       -0.8098731740       -0.0050307680
 C         -5.6362384838       -1.3264110065        1.2006460795
 C         -6.0415591181       -2.6509340293        1.2559159049
 C         -6.0087793840       -3.4308258738        0.1101733028
 C         -5.5742609813       -2.8962031500       -1.0936506744
 C         -5.1687836119       -1.5726572675       -1.1558088596
 H         -4.8266160008       -1.1209176723       -2.0719300098
 H         -5.5492463485       -3.5061195659       -1.9823680676
 H         -6.3236359812       -4.4614493071        0.1554910405
 H         -6.3799358953       -3.0682755099        2.1907034183
 H         -5.6392683203       -0.6845011463        2.0673189571
 H         -3.0927202447        1.5059793692       -1.5664850361
 H         -2.9093129470       -0.8441661104        1.1913645873
 H         -0.8865799429       -1.0981641068        2.5888330775
 H          1.1107307737        0.2774447526        2.1373723491
 C          1.4825661838        2.1284946164        0.2609329629
 H          1.6610619709        2.7340781156        1.1615940456
 C          1.4049159764        3.0518752229       -0.9367797306
 C          0.7421946505        4.3904043410       -0.8147018548
 C          2.2327640810        4.3002092736       -0.9414720422
 H          2.6922245990        4.6112376020       -1.8676703732
 H          2.8359820831        4.4979123888       -0.0672480301
 H          0.1800631023        4.7688119877       -1.6555633572
 H          0.3298234774        4.6586298643        0.1465107429
 H          1.3083062753        2.5139101767       -1.8730029031
 O          1.7665665427        0.0486991727       -1.7092881110
