  62
        -98.94046600
 C         -1.7866702716       -1.3531891426        0.3396795666
 C         -1.3188908727       -0.2536608431       -0.4152065580
 C         -1.8716988253        1.0718063450       -0.0768705766
 C         -2.7739680819        1.1660215751        0.9159786136
 C         -3.5061480131        2.3975510125        1.3735552392
 C         -4.6404193788        2.8043419114        0.4124618951
 C         -4.3348477242        2.6243582338       -1.0736834925
 H         -4.0150106085        1.5958202148       -1.2510544402
 H         -5.2672660295        2.7726518527       -1.6247230611
 C         -3.2967697018        3.5852890199       -1.6485555593
 H         -3.6874635692        4.6041892818       -1.5938254086
 H         -3.1649405236        3.3349031240       -2.7040544206
 C         -1.9264883046        3.5663031370       -0.9720714754
 H         -1.9806087000        4.0263053039        0.0111145181
 H         -1.2565438861        4.1911994382       -1.5703772418
 C         -1.2635208642        2.1939517841       -0.8818997223
 H         -1.1311839189        1.7954976297       -1.8939413062
 H         -0.2512125733        2.3261583599       -0.4762283847
 H         -4.9050511026        3.8443950687        0.6087442611
 H         -5.5103691741        2.1856035742        0.6449410408
 H         -2.7966110242        3.2081140606        1.5164373802
 H         -3.9410117522        2.1646354429        2.3481392603
 O         -3.1930688776        0.0807524468        1.6271199955
 C         -2.6855115688       -1.1821380846        1.3929697277
 O         -3.1071493152       -2.0607722018        2.1737649995
 O         -0.4794282805       -0.3602355869       -1.3480436321
 C         -1.2340414931       -2.7531967324        0.1300955372
 C          0.2637845093       -2.6802773522       -0.0467965962
 C          0.9577155625       -3.3029288499       -1.0761958297
 C          2.3321818951       -3.1699302505       -1.1780899282
 C          3.0377976152       -2.3931054160       -0.2782844740
 C          2.3514304955       -1.7659628603        0.7552693881
 C          0.9849607230       -1.9415545739        0.8844284460
 H          0.4677948984       -1.4474292650        1.6951860276
 N          3.0115465871       -0.9273400284        1.6806094975
 S          2.6268706024        0.7039666209        1.6104118108
 O          3.4337947949        1.3259334135        2.6396101134
 O          1.2022900056        0.8815198795        1.7240136979
 C          3.2175032189        1.2282284733        0.0097425403
 C          2.4848713528        0.9202501369       -1.1191870967
 C          2.9970832550        1.2749629239       -2.3587501143
 C          4.2205236307        1.9199167614       -2.4490782529
 C          4.9434303917        2.2198938277       -1.3039675715
 C          4.4413723971        1.8667764437       -0.0623386433
 H          4.9646913560        2.0805023383        0.8557617006
 H          5.8943360528        2.7230527173       -1.3746737116
 H          4.6118625366        2.1904443599       -3.4171697015
 H          2.4298102695        1.0380758342       -3.2444665253
 H          1.5313768503        0.4215697172       -1.0298765465
 H          4.0184751022       -1.0222958280        1.6647222511
 H          4.1054550620       -2.2638689986       -0.3750619593
 H          2.8568372453       -3.6599495025       -1.9839616663
 H          0.4219811126       -3.8762928560       -1.8145799399
 H         -1.4343698757       -3.2806038895        1.0783306973
 C         -1.9361820790       -3.5432072362       -0.9652633923
 C         -3.3334631130       -3.2049205423       -1.3896555544
 C         -2.1874825938       -2.9598032470       -2.3220788797
 H         -2.0847796380       -3.6015426162       -3.1848260483
 H         -1.8682050972       -1.9435356471       -2.4891463044
 H         -4.0119235374       -4.0168243149       -1.6052312655
 H         -3.8080280299       -2.3545003313       -0.9213350283
 H         -1.6958581688       -4.6009681795       -0.9227123488
