  62
        -98.93951363
 C         -1.5596020941       -0.0050948895        0.6927390540
 C         -2.8400682726        0.4191230786        1.1211409623
 C         -3.9073525669        0.4483734638        0.1065127254
 C         -3.6200785591        0.0978864223       -1.1609815471
 C         -4.4778000953        0.0782067167       -2.4093110315
 C         -5.9974182373        0.1886260383       -2.3159258318
 C         -6.6869453575       -1.0124511096       -1.6694753955
 H         -7.7491685141       -0.7809341928       -1.5650473397
 H         -6.5977354984       -1.8678747475       -2.3438816550
 C         -6.1344060937       -1.4372028379       -0.3112533352
 H         -5.0982792669       -1.7629979287       -0.4226771452
 H         -6.7096654785       -2.3031874753        0.0272451762
 C         -6.2056817897       -0.3755099943        0.7843763006
 H         -7.2310571952       -0.0129546951        0.8789721217
 H         -5.9328440531       -0.8570866047        1.7271554675
 C         -5.2735792033        0.8340441331        0.5964787700
 H         -5.7194659650        1.5796506735       -0.0575809825
 H         -5.1269613290        1.3022002107        1.5742101751
 H         -6.3664579962        0.2677801586       -3.3422009196
 H         -6.2776482208        1.1078784780       -1.8101158742
 H         -4.1081740164        0.8989790394       -3.0343241897
 H         -4.2177887821       -0.8466358611       -2.9341995230
 O         -2.3636365938       -0.2848366893       -1.5326949206
 C         -1.3099060337       -0.3513604923       -0.6341365087
 O         -0.2403002738       -0.7391699506       -1.1394567071
 H          2.1091945475       -0.0528068704        0.6502014878
 C          1.7550616277        0.9398603522        0.8619697699
 C          0.4979026682        1.1239641777        1.4136401767
 C          0.0675634287        2.4222630492        1.6790209003
 C          0.8793917332        3.5041028768        1.3999490021
 C          2.1301334297        3.3153863961        0.8359010700
 C          2.5653640838        2.0261787818        0.5593605410
 N          3.8349969739        1.7899396552        0.0018103452
 S          3.9265194181        0.8356562957       -1.3823158173
 O          5.2105619628        1.1796881519       -1.9603497601
 O          2.7788644488        1.0378063727       -2.2346039342
 C          4.0086355465       -0.8347897301       -0.7749926702
 C          2.9783416073       -1.7185589718       -1.0287621314
 C          3.0767739568       -3.0113312639       -0.5362401493
 C          4.1924069551       -3.3940833910        0.1925093114
 C          5.2188329537       -2.4930511077        0.4342474042
 C          5.1293961502       -1.2000287787       -0.0547565923
 H          5.9055660011       -0.4698215985        0.1024673674
 H          6.0840879608       -2.7943414113        1.0023438970
 H          4.2594519241       -4.4006117919        0.5749209230
 H          2.2743167748       -3.7082790012       -0.7209440014
 H          2.1098292740       -1.3780583659       -1.5722164260
 H          4.3907434554        2.6253877578       -0.1200022164
 H          2.7631502214        4.1604362784        0.6092085123
 H          0.5357004187        4.5047482759        1.6157326704
 H         -0.9151981445        2.5683258765        2.1055806694
 C         -0.4316477496       -0.0272864024        1.7117069913
 H         -0.9139976507        0.1739588640        2.6787087905
 C          0.2603941988       -1.3716208085        1.7769188852
 C          1.1650446463       -1.6799642161        2.9313987965
 C         -0.1601990419       -2.3689956482        2.8124446772
 H         -0.1774175622       -3.4140884631        2.5425691962
 H         -0.9487585297       -2.0815629296        3.4925487465
 H          1.2757816109       -0.9222033530        3.6920950557
 H          2.0620157219       -2.2497825812        2.7421971198
 H          0.5367091992       -1.7563776440        0.8032078741
 O         -3.0845732746        0.7672714356        2.3077038666
