  62
        -98.93686375
 C          1.7388882534        1.1231828862       -0.0483863903
 C          2.2422796756       -0.0397761751       -0.6778123682
 C          3.7087955506       -0.1652748325       -0.7207525136
 C          4.4681285611        0.8066166267       -0.1831008918
 C          5.9668034193        0.7857920591       -0.0782928963
 C          6.4018534620       -0.1412373485        1.0747348213
 C          7.1784605979       -1.3802704322        0.6287996841
 H          8.1966765961       -1.0858675445        0.3660355410
 H          7.2410727511       -2.0533467706        1.4865120673
 C          6.5900872815       -2.1437869953       -0.5615524326
 H          6.8537054283       -1.6357859781       -1.4904090596
 H          7.0826992420       -3.1180851913       -0.5896283020
 C          5.0714546511       -2.3605845938       -0.5353812626
 H          4.8647177452       -3.3637554652       -0.9140406404
 H          4.6937278838       -2.3242228222        0.4866738967
 C          4.2685986387       -1.3790795870       -1.4095181729
 H          4.8783274344       -1.0670325960       -2.2621822665
 H          3.3928064505       -1.9017253320       -1.8061830713
 H          7.0236006065        0.4173933912        1.7759133097
 H          5.5084913220       -0.4484713737        1.6224141454
 H          6.3964586225        0.4528757750       -1.0204561614
 H          6.2931144156        1.8082708834        0.1126921797
 O          3.9445767405        1.9104502487        0.4112524679
 C          2.5749197657        2.0974953365        0.4959043446
 O          2.2321844085        3.1489444371        1.0728133401
 O          1.5079859859       -0.9299661935       -1.1815685908
 C          0.2393383025        1.3498658947        0.0416670190
 C         -0.4089403544        0.1909622647        0.7570969945
 C          0.0678761941       -0.1554431540        2.0198456477
 C         -0.4726879624       -1.2200958399        2.7125732929
 C         -1.5090600111       -1.9569091397        2.1658184019
 C         -1.9960857850       -1.6165303985        0.9098856716
 C         -1.4540050073       -0.5407202266        0.2168102045
 H         -1.8369845574       -0.3121204581       -0.7633338816
 N         -3.0367981106       -2.3545045496        0.3352548715
 S         -4.1164246328       -1.6844327035       -0.7366669987
 O         -5.2601401009       -2.5712187735       -0.6868933049
 O         -3.5167060660       -1.5137024923       -2.0361447960
 C         -4.5657575229       -0.0918457719       -0.0660066598
 C         -4.7975248762        0.0358061175        1.2892254544
 C         -5.1697235373        1.2723160522        1.7914858325
 C         -5.3109883636        2.3538114645        0.9355808458
 C         -5.0836110708        2.2080406475       -0.4237169157
 C         -4.7073975937        0.9742787638       -0.9301989757
 H         -4.5147019719        0.8166574409       -1.9791985252
 H         -5.1943291506        3.0488729185       -1.0895924636
 H         -5.6001010397        3.3153066549        1.3296931618
 H         -5.3478186507        1.3885394233        2.8484120886
 H         -4.6857059514       -0.8191754614        1.9354304338
 H         -3.4503847963       -3.0646604440        0.9194417259
 H         -1.9278111664       -2.7961557694        2.6998494616
 H         -0.0870434948       -1.4800959803        3.6868500870
 H          0.8800535889        0.4199913258        2.4435877547
 H          0.1065519040        2.2499334828        0.6594124818
 C         -0.3283248836        1.6196708623       -1.3352697464
 C         -1.5631122103        2.4533578644       -1.4900520126
 C         -0.2301912260        3.0063023671       -1.8941024246
 H         -0.0158070364        3.1249071345       -2.9456553354
 H          0.2254279530        3.7597667783       -1.2680042206
 H         -2.2633518579        2.1893349504       -2.2676762417
 H         -2.0237847033        2.8371474250       -0.5924344019
 H         -0.1800184448        0.7927889432       -2.0209144822
