  62
        -98.94377076
 C          1.5482205859        1.0554627756        0.2608616903
 C          2.5936235872        0.5749132038        1.0876495388
 C          3.1759677306       -0.7166362227        0.7103542294
 C          2.6520912044       -1.4069169139       -0.3186071042
 C          3.1129456959       -2.7538191264       -0.8060597184
 C          4.3054849909       -2.6967562194       -1.7709411165
 C          5.6473903563       -2.3462788591       -1.1265326605
 H          5.8238447330       -3.0069528575       -0.2771875330
 H          6.4219709422       -2.5534185123       -1.8674568849
 C          5.7719017215       -0.8834649281       -0.6781039142
 H          6.7358667226       -0.4840388336       -1.0007812360
 H          4.9980893131       -0.2867656870       -1.1667173175
 C          5.6779652945       -0.6734686805        0.8332644025
 H          6.5229857439       -1.1607926664        1.3244305317
 H          5.7435731348        0.3987263213        1.0356671699
 C          4.3800088693       -1.1955128752        1.4640362526
 H          4.3107236820       -0.8056772784        2.4828206993
 H          4.3927099190       -2.2846228411        1.5080683438
 H          4.3953192405       -3.6818360884       -2.2344538857
 H          4.0808649324       -1.9766630345       -2.5611122510
 H          3.3620600689       -3.3848399395        0.0479057056
 H          2.2631264021       -3.2001441733       -1.3274636260
 O          1.5972716851       -0.9502513143       -1.0401969585
 C          1.0175629787        0.2818659443       -0.7740485741
 O          0.0639221228        0.5595822914       -1.5246796047
 O          3.0147246457        1.1955150447        2.1021121436
 C          0.9283037632        2.3970229518        0.6153614783
 C         -0.5722362177        2.2601014909        0.6262383564
 C         -1.4341006555        3.0309239744       -0.1421807189
 C         -2.7966323881        2.7846692956       -0.1329791560
 C         -3.3237284807        1.7521712447        0.6209635915
 C         -2.4695980566        0.9841709408        1.4006833844
 C         -1.1144822412        1.2570363601        1.4218164300
 H         -0.4548238141        0.6394647692        2.0205594571
 N         -3.0039721439       -0.1401293392        2.0984728417
 S         -2.7634097082       -1.5480898909        1.1889638364
 O         -3.3695065746       -2.6158952248        1.9578537519
 O         -1.3619638345       -1.7388033234        0.8755471615
 C         -3.7168600853       -1.2226715475       -0.2732879380
 C         -5.0631733761       -1.5332069368       -0.2560295327
 C         -5.8339996281       -1.2317717648       -1.3667108251
 C         -5.2478415083       -0.6220998959       -2.4662179702
 C         -3.8952344879       -0.3182839710       -2.4658844994
 C         -3.1147593655       -0.6185369523       -1.3593749743
 H         -2.0603639432       -0.3864441972       -1.3309109458
 H         -3.4355499261        0.1582503650       -3.3168142124
 H         -5.8480283085       -0.3817365789       -3.3296588914
 H         -6.8858245752       -1.4682748215       -1.3705219284
 H         -5.4697608808       -2.0070969641        0.6222733847
 H         -2.5597587706       -0.2829354898        2.9969898453
 H         -4.3776058002        1.5268659348        0.6092598192
 H         -3.4520706056        3.3882082664       -0.7413854580
 H         -1.0346499884        3.8060392432       -0.7753086765
 H          1.2630024560        2.5855578223        1.6499424260
 C          1.4305025040        3.5622521704       -0.2233671547
 C          2.7857126875        3.5226726509       -0.8622382388
 C          1.5546084017        3.4777243749       -1.7141129502
 H          1.3067818675        4.3512319213       -2.2990828725
 H          1.2858467898        2.5448753099       -2.1840785126
 H          3.3807118167        4.4235929537       -0.8596463360
 H          3.3648291197        2.6171866434       -0.7505883569
 H          1.1237953502        4.5190813954        0.1876223750
