  62
        -98.94334612
 C          2.5525856603        0.0623869216       -0.1381211892
 C          2.3922991501        1.2001528318       -0.9677156189
 C          1.8581255395        2.4078267514       -0.3273493688
 C          1.5536313592        2.3749179910        0.9822435911
 C          0.9690537686        3.5193296406        1.7580991212
 C         -0.5634922314        3.4568738600        1.7812444208
 C         -1.2039142110        3.2881897401        0.4030030706
 H         -0.9851344605        2.2848591603        0.0283665105
 H         -2.2868253311        3.3373497897        0.5431182204
 C         -0.7771483711        4.3295532905       -0.6405056590
 H         -1.6649940611        4.6553505903       -1.1862974692
 H         -0.3596651516        5.2060930006       -0.1429811387
 C          0.2169579693        3.8103855111       -1.6813660089
 H          0.2456407893        4.5218590813       -2.5113513687
 H         -0.1420814702        2.8558820711       -2.0771827492
 C          1.6587008793        3.6206009115       -1.1917803786
 H          2.2922645296        3.4687014120       -2.0707363184
 H          1.9952335888        4.5228441415       -0.6762497783
 H         -0.9372326019        4.3693995898        2.2505860810
 H         -0.8649803313        2.6033016698        2.3930639806
 H          1.2995242283        4.4571563608        1.3151180716
 H          1.3391589983        3.4602648605        2.7834394113
 O          1.7270756094        1.2715181909        1.7508480709
 C          2.1663338200        0.0744388312        1.2044966007
 O          2.1891038301       -0.8690130890        2.0171032705
 O          2.6804251304        1.2024609221       -2.1966435589
 C          2.9572399009       -1.2422341281       -0.8073389594
 C          1.8970823012       -2.2695608785       -0.4965182999
 C          2.1389602915       -3.5242021086        0.0441824299
 C          1.0805647218       -4.3605488490        0.3595410094
 C         -0.2286686683       -3.9578801695        0.1709060092
 C         -0.4788472186       -2.7062247494       -0.3812821906
 C          0.5816280112       -1.8951930090       -0.7403957801
 H          0.3781527309       -0.9252785589       -1.1718248000
 N         -1.7897361288       -2.2339177698       -0.5874520708
 S         -2.0327356894       -0.5835161800       -0.2854306205
 O         -1.6857629894        0.1573376704       -1.4733022802
 O         -1.3707493299       -0.1963102701        0.9383080198
 C         -3.8024556595       -0.5498934107       -0.0682785509
 C         -4.3287038298       -0.5639557712        1.2093212189
 C         -5.7058313799       -0.5675196517        1.3674570486
 C         -6.5284069696       -0.5603578317        0.2509438284
 C         -5.9854472693       -0.5452402412       -1.0253701915
 C         -4.6094537192       -0.5398820207       -1.1902240811
 H         -4.1404399590       -0.5175726403       -2.1600116210
 H         -6.6278245890       -0.5365345513       -1.8910375516
 H         -7.5995253496       -0.5637944722        0.3768136781
 H         -6.1299230501       -0.5752706321        2.3585281985
 H         -3.6484625900       -0.5604094211        2.0461977491
 H         -2.4825452987       -2.7960326602       -0.1107557811
 H         -1.0497760682       -4.5988251998        0.4544728788
 H          1.2794696620       -5.3319961291        0.7865145092
 H          3.1503888216       -3.8358088483        0.2477880801
 H          2.8988120811       -1.0154034378       -1.8862365093
 C          4.3785446210       -1.7120363676       -0.5463490391
 C          5.4484928706       -0.7439077573       -0.1404728686
 C          4.9740055807       -1.7846245077        0.8265683610
 H          5.6343899610       -2.6096423976        1.0513010010
 H          4.3559400704       -1.4773354982        1.6545645009
 H          6.4307178307       -0.8500594769       -0.5761141384
 H          5.1518938602        0.2813057425        0.0294678715
 H          4.6780405115       -2.4885876174       -1.2440666092
