  62
        -98.92778624
 C          2.4961684026        0.2839559072       -0.6418735637
 C          2.1745224467        0.8608103088        0.6093465429
 C          1.5557322619        2.1980741309        0.5739601234
 C          1.3229098927        2.7879360856       -0.6103709390
 C          0.7454385736        4.1521948394       -0.9028486055
 C         -0.4020275866        4.6601151194       -0.0239228591
 C         -1.4247530025        3.5922790573        0.3898892269
 H         -2.4281336857        3.9508190060        0.1508671275
 H         -1.2633769900        2.6723347032       -0.1758410663
 C         -1.3782433299        3.2698480141        1.8848579065
 H         -1.2728758964        4.1991182302        2.4499610591
 H         -2.3282501928        2.8146903120        2.1747252637
 C         -0.2670648522        2.3041709443        2.2890527299
 H         -0.4432105732        1.3314882362        1.8202455729
 H         -0.3137546669        2.1595868301        3.3713755051
 C          1.1543981350        2.7547378675        1.9100654394
 H          1.2476414289        3.8377544268        1.9415684321
 H          1.8521532503        2.3237517897        2.6332128192
 H          0.0043054718        5.1336536097        0.8688298793
 H         -0.9043729046        5.4439347193       -0.5944101829
 H          1.5659893996        4.8764721525       -0.8708014805
 H          0.4088759665        4.0968973674       -1.9415828492
 O          1.6610100268        2.1963969228       -1.7944998022
 C          2.2170205501        0.9321159056       -1.8407292444
 O          2.4264031405        0.5014288312       -2.9971186117
 H          0.4970563721       -1.1779192713       -0.9850411056
 C          0.7785822511       -1.8481053297       -0.1848215701
 C          2.1313900484       -2.0086961884        0.1171691513
 C          2.4584427007       -2.9174522606        1.1128292344
 C          1.4637010465       -3.6036027631        1.7949095911
 C          0.1267569415       -3.3843696562        1.5337561803
 C         -0.2175898298       -2.4746512839        0.5373103854
 N         -1.5656122884       -2.1512739419        0.3016676676
 S         -2.0260028194       -0.9822379602       -0.8055060155
 O         -1.9058464244       -1.4830639144       -2.1607029175
 O         -1.3457563195        0.2501864842       -0.5064711858
 C         -3.7481050016       -0.8353249847       -0.3716103376
 C         -4.6924506551       -1.5897893886       -1.0411791779
 C         -6.0233651780       -1.4826976248       -0.6687139002
 C         -6.3849767197       -0.6285812629        0.3621516854
 C         -5.4261892527        0.1247148080        1.0233853590
 C         -4.0942777531        0.0213925056        0.6555915877
 H         -3.3129422526        0.5911530844        1.1320551365
 H         -5.7108061367        0.7908851014        1.8217677245
 H         -7.4211269977       -0.5466091430        0.6500497838
 H         -6.7715250409       -2.0636501237       -1.1835040697
 H         -4.3668456005       -2.2301418418       -1.8451901623
 H         -2.2120935261       -2.9228608113        0.3662197742
 H         -0.6419617235       -3.8930642391        2.0936018247
 H          1.7448691523       -4.3079003861        2.5634320468
 H          3.4802032227       -3.0979791320        1.3924375802
 C          3.0491785377       -1.1365569063       -0.7109667419
 H          2.9145193049       -1.4476284227       -1.7622606148
 C          4.5509671233       -1.0823945468       -0.4777105030
 C          5.2229285798       -1.1567735050        0.8566815122
 C          5.4298294522       -2.2520834184       -0.1483584703
 H          6.3891101638       -2.3051190844       -0.6422883686
 H          4.9757101319       -3.2160242207        0.0101563622
 H          4.6015044462       -1.3242243137        1.7208129989
 H          6.0403521548       -0.4754258350        1.0438042981
 H          4.9778820870       -0.3660168098       -1.1778253869
 O          2.3958971301        0.2942034168        1.7095614695
