  62
        -98.93570756
 C         -2.0691811097       -1.3937454210        0.3088008405
 C         -1.5990911403       -0.3525424407       -0.5271477694
 C         -2.3382884307        0.9248481191       -0.4589625390
 C         -3.4123306305        1.0348867186        0.3444813414
 C         -4.4030399409        2.1644754482        0.5372478819
 C         -4.0741316015        3.5813035284        0.0742169720
 C         -2.9314086815        4.2498509186        0.8366220518
 H         -2.7195489220        5.2108704688        0.3633834519
 H         -3.2628486013        4.4485953383        1.8590011519
 C         -1.6402485312        3.4393717091        0.9176921813
 H         -0.9091058012        4.0282920492        1.4784959812
 H         -1.8182492907        2.5250321689        1.4882182712
 C         -1.0103766115        3.0771730095       -0.4262084190
 H         -0.8704321119        3.9832286697       -1.0178326388
 H         -0.0227705113        2.6556978598       -0.2215031193
 C         -1.7789963513        2.0516332494       -1.2781641489
 H         -1.0695524114        1.6003486098       -1.9780953692
 H         -2.5616252117        2.5279683593       -1.8638369786
 H         -3.8765964218        3.5932321086       -0.9934651280
 H         -4.9753950516        4.1785464380        0.2368601624
 H         -4.6302757406        2.1812116279        1.6079286419
 H         -5.3210312809        1.8412715280        0.0334323121
 O         -3.8237263399        0.0015638483        1.1376663113
 C         -3.1549204595       -1.2085742815        1.1663641809
 O         -3.6132533490       -2.0269720418        1.9887676509
 O         -0.6149253505       -0.4641456702       -1.3017170497
 C         -1.4122673792       -2.7610599807        0.3505621201
 C          0.0954235207       -2.6603083802        0.3334559397
 C          0.9012855809       -3.5485997398       -0.3677345807
 C          2.2802671608       -3.4325041794       -0.3270960611
 C          2.8868930907       -2.4183727593        0.3888954189
 C          2.0903802806       -1.5071951397        1.0735273193
 C          0.7120764606       -1.6548055601        1.0685593197
 H          0.0996107205       -0.9557966405        1.6253376700
 N          2.6872463304       -0.4480163296        1.7830921494
 S          3.8321449698        0.5281752509        1.0515987492
 O          4.9839291900       -0.2722085986        0.7168382387
 O          4.0564755697        1.6004488408        1.9950726593
 C          3.1091403492        1.1907927410       -0.4401087405
 C          2.7896267787        2.5336028809       -0.4739032901
 C          2.2351521082        3.0643794309       -1.6274658399
 C          1.9933207182        2.2425458810       -2.7171375400
 C          2.3165936787        0.8959940911       -2.6665281403
 C          2.8882477992        0.3626071111       -1.5229340506
 H          3.1569213095       -0.6785784288       -1.4630645308
 H          2.1214867086        0.2543912812       -3.5103847804
 H          1.5495899278        2.6532240810       -3.6104641098
 H          1.9872506178        4.1128777208       -1.6692166896
 H          2.9871198788        3.1344788408        0.3995484899
 H          2.0227536703        0.1271605401        2.2799874297
 H          3.9586522206       -2.3043079689        0.4133459787
 H          2.8917221209       -4.1384457690       -0.8686993814
 H          0.4551425810       -4.3321110199       -0.9568482907
 H         -1.7021527788       -3.1839249810        1.3277085001
 C         -1.9481754492       -3.7155579807       -0.7118331699
 C         -3.2123790595       -3.4302972910       -1.4651560895
 C         -1.8915947997       -3.3635805005       -2.1674828199
 H         -1.6486459497       -4.1388098102       -2.8792069001
 H         -1.4963448701       -2.3922194603       -2.4201876098
 H         -3.8718079593       -4.2583451812       -1.6794047495
 H         -3.7312890798       -2.5058840613       -1.2566099792
 H         -1.7835473888       -4.7563869307       -0.4519923401
