  62
        -98.94375589
 C         -1.7414184630       -1.4182707614       -0.3081957207
 C         -2.7316532702       -0.6536440177        0.3507440060
 C         -2.9845271495        0.6820861694       -0.2010040900
 C         -2.3173656910        1.0877563099       -1.2962152542
 C         -2.4554522630        2.4197017696       -1.9819063101
 C         -1.9239327059        3.6218414889       -1.1757571543
 C         -3.0028150001        4.3689287632       -0.3814211823
 H         -2.8050181808        5.4409921288       -0.4448500806
 H         -3.9698985375        4.1989914665       -0.8572636281
 C         -3.0990356530        4.0210247733        1.1073494366
 H         -2.2971182515        4.5329682652        1.6447893308
 H         -4.0494483027        4.4084000097        1.4823250293
 C         -2.9953571409        2.5358782613        1.4554587664
 H         -3.2649825887        2.4124379534        2.5070369411
 H         -1.9535825629        2.2142698836        1.3656753025
 C         -3.8668048708        1.6044261796        0.5879876636
 H         -4.4918894029        0.9770691450        1.2269770175
 H         -4.5139534448        2.1823937402       -0.0700421238
 H         -1.4819785648        4.3185432595       -1.8903177186
 H         -1.1232685919        3.2835179209       -0.5159897633
 H         -3.5043280443        2.5837646074       -2.2384443302
 H         -1.8891140710        2.3339950048       -2.9113391502
 O         -1.4218548865        0.2949780068       -1.9412217704
 C         -1.0565157958       -0.9354157242       -1.4215108396
 O         -0.1316460438       -1.4989158048       -2.0406359753
 O         -3.3597661734       -1.0634715644        1.3656329837
 C         -1.2753343766       -2.7232165095        0.3134351096
 C          0.1709972153       -2.5590724458        0.7171971159
 C          1.1559903384       -3.5108264378        0.4884310055
 C          2.4725540336       -3.2542529739        0.8342539007
 C          2.8390422173       -2.0401721217        1.3861636882
 C          1.8571096155       -1.0874369532        1.6319163817
 C          0.5357373341       -1.3669644477        1.3312306237
 H         -0.2139443262       -0.6167747976        1.5360207544
 N          2.1650033060        0.1855898074        2.1591039260
 S          1.8790946273        1.4943525379        1.1476085574
 O          2.3287325630        2.6507947409        1.8927946777
 O          0.5037034155        1.5067526921        0.7239766076
 C          2.9778763088        1.2175579183       -0.2297050050
 C          2.6198712353        0.3202748279       -1.2155842179
 C          3.5239581471        0.0537576218       -2.2330272993
 C          4.7602492966        0.6803509300       -2.2466216258
 C          5.1040150431        1.5795572650       -1.2479457874
 C          4.2083736778        1.8471890206       -0.2259308406
 H          4.4291719804        2.5394417939        0.5706322014
 H          6.0649998468        2.0680570078       -1.2609575026
 H          5.4578841493        0.4666418444       -3.0409824278
 H          3.2458717705       -0.6465968015       -3.0043152958
 H          1.6517041007       -0.1554760630       -1.1926898289
 H          3.1049657985        0.2573955471        2.5252535158
 H          3.8708812381       -1.8280615977        1.6227158248
 H          3.2276291655       -4.0025454893        0.6480208025
 H          0.8951633115       -4.4498997360        0.0284175496
 H         -1.8808100814       -2.8499589625        1.2233836802
 C         -1.5198525753       -3.8981744881       -0.6081175177
 C         -1.7531949032       -5.2661260187       -0.0412950646
 C         -2.8882147637       -4.5066514238       -0.6574214839
 H         -3.2729199703       -4.8330552646       -1.6118385926
 H         -3.6399394197       -4.0871479932       -0.0047456771
 H         -1.3615071034       -6.1191769828       -0.5744798152
 H         -1.7396953208       -5.3712442489        1.0330467609
 H         -0.9753105945       -3.8137814529       -1.5416014296
