  62
        -98.94478877
 C          1.8540118177        0.7349069507        0.4112473640
 C          2.4616054237        0.1409214444       -0.7215854896
 C          3.5236819774       -0.8323689937       -0.4345738854
 C          3.8237755583       -1.1419415679        0.8397631222
 C          4.8639244030       -2.1315664809        1.2901548658
 C          6.2860359851       -1.5574660672        1.3520203432
 C          6.9476569648       -1.3101743685       -0.0042822718
 H          8.0055820032       -1.1189300533        0.1861892608
 H          6.8845989366       -2.2157899714       -0.6084828360
 C          6.3648567509       -0.1248502562       -0.7865384119
 H          5.7887156753        0.5104953547       -0.1099556996
 H          7.1794840012        0.4856075576       -1.1825189482
 C          5.4789980349       -0.5192753731       -1.9683962522
 H          6.0778405169       -1.0432975653       -2.7166093554
 H          5.0917479300        0.3942323888       -2.4266201797
 C          4.2828809955       -1.4041457717       -1.5934213730
 H          3.6024521847       -1.4435053961       -2.4477784897
 H          4.6191552452       -2.4160825584       -1.3679580387
 H          6.2619808068       -0.6253754158        1.9212932596
 H          6.9005147482       -2.2698978786        1.9072815513
 H          4.5769059052       -2.4488245598        2.2951684575
 H          4.8496808020       -3.0026577371        0.6343163786
 O          3.1761066688       -0.5883639366        1.9001612052
 C          2.1919836368        0.3699447833        1.7136274678
 O          1.6894759132        0.8032162357        2.7714884510
 H         -0.4197203455       -0.5286496749        0.7665168869
 C         -0.8957114341       -0.0411420651       -0.0759092256
 C         -0.4040167632        1.1834479968       -0.5123747468
 C         -1.0348759428        1.8060393654       -1.5808203316
 C         -2.1061483571        1.1980215691       -2.2137797361
 C         -2.5771745572       -0.0309802913       -1.7919122059
 C         -1.9666007859       -0.6522066450       -0.7089635053
 N         -2.4491183622       -1.8914492251       -0.2567827413
 S         -4.1048130437       -2.0950955818       -0.1324988605
 O         -4.2872485040       -3.0836226391        0.9072804264
 O         -4.6504690797       -2.4346663220       -1.4230911700
 C         -4.7395208461       -0.5111550160        0.3899058860
 C         -5.6637239528        0.1516752020       -0.3916515023
 C         -6.1242448008        1.3919064187        0.0207081382
 C         -5.6515951444        1.9465825198        1.1996669129
 C         -4.7256446984        1.2665010959        1.9761646577
 C         -4.2636516353        0.0253231033        1.5700064665
 H         -3.5459330684       -0.5280649162        2.1547106035
 H         -4.3576534849        1.6987120514        2.8929540870
 H         -6.0061128142        2.9141780542        1.5178777647
 H         -6.8455169501        1.9221148548       -0.5798575268
 H         -6.0005073164       -0.3148900898       -1.3030091044
 H         -1.9698895660       -2.2498885265        0.5554819548
 H         -3.3968596180       -0.5254598058       -2.2873702613
 H         -2.5781650820        1.6870643207       -3.0519680381
 H         -0.6817456347        2.7631601268       -1.9268818637
 C          0.7688563831        1.7806011168        0.2277820398
 H          0.4296394872        2.0458151836        1.2399574327
 C          1.3403800893        3.0168315819       -0.4342666623
 C          0.7477155666        4.3647084282       -0.1571691748
 C          2.0883785996        4.0051819655        0.4073944077
 H          2.9683168197        4.4742601074       -0.0067261535
 H          2.1620485129        3.7996818496        1.4657842854
 H          0.7088705403        5.0860957018       -0.9592996750
 H         -0.0898953483        4.4128206177        0.5219076413
 H          1.7226713648        2.8170559508       -1.4285259723
 O          2.1365164707        0.4045472120       -1.9075533579
