  62
        -98.94361463
 C         -1.0661867529       -1.1279949463       -0.6739189365
 C         -2.0847700629       -1.4235868215        0.2665286326
 C         -2.9324260069       -0.3034909501        0.6918090668
 C         -2.6694045818        0.9293279832        0.2230241324
 C         -3.4646001440        2.1598830502        0.5498368543
 C         -4.5939428152        2.3816610861       -0.4659471615
 C         -5.4433557283        1.1374014218       -0.7244342645
 H         -4.8254484113        0.3798543135       -1.2116800174
 H         -6.2264043708        1.4191161131       -1.4316026246
 C         -6.0835323354        0.5337277427        0.5332904762
 H         -7.1263634770        0.2939076565        0.3154308553
 H         -6.0815584032        1.2681964447        1.3394997904
 C         -5.4235031579       -0.7564287806        1.0236467284
 H         -5.3369985621       -1.4622122621        0.1937123158
 H         -6.0782634696       -1.2102927563        1.7723556310
 C         -4.0389994279       -0.5973052670        1.6652025100
 H         -3.7772291372       -1.5501227262        2.1351211478
 H         -4.0781186283        0.1669907627        2.4448265788
 H         -4.1502186246        2.6962710993       -1.4131629534
 H         -5.2305298744        3.1904430513       -0.1025657192
 H         -3.8754071916        2.0618602694        1.5530624633
 H         -2.7923626323        3.0196260971        0.5289493539
 O         -1.6666049379        1.1857354041       -0.6505750390
 C         -0.8389201079        0.1726057241       -1.1267772491
 O          0.0213456792        0.5740393307       -1.9294993642
 H          1.4079795561       -0.3108618417       -0.1411603570
 C          1.6726279677       -1.2690197143        0.2760702781
 C          0.9766388848       -2.4041821641       -0.1140038742
 C          1.3427407302       -3.6301007938        0.4286143737
 C          2.3743878508       -3.7103377426        1.3479175283
 C          3.0408515110       -2.5707490690        1.7614766481
 C          2.6795938247       -1.3398562851        1.2254167145
 N          3.3196186811       -0.1545257749        1.6144759141
 S          2.4214712928        1.2565834290        1.7302718910
 O          3.1901620910        2.0905153097        2.6340002646
 O          1.0588322470        0.9925901077        2.1350033703
 C          2.4782244004        1.9873021717        0.1103108435
 C          3.5887759475        1.7932936495       -0.6860506954
 C          3.6361301486        2.4107346415       -1.9249238818
 C          2.5840121417        3.2121595033       -2.3399787388
 C          1.4798249865        3.4014309856       -1.5255191570
 C          1.4244795445        2.7837902804       -0.2872049137
 H          0.5727788988        2.8857064780        0.3676612771
 H          0.6549786948        4.0139274920       -1.8524792210
 H          2.6202236723        3.6871862427       -3.3077657092
 H          4.4904074320        2.2603107700       -2.5654448278
 H          4.3850100848        1.1578797057       -0.3350405405
 H          3.9790274341       -0.2464411691        2.3735779888
 H          3.8274564177       -2.6290187402        2.4981749572
 H          2.6499768791       -4.6679653772        1.7627949695
 H          0.8001957202       -4.5192130440        0.1427519928
 C         -0.1698154537       -2.2829794005       -1.0864050416
 H         -0.7927926912       -3.1848644028       -0.9723816275
 C          0.2862728345       -2.2221368786       -2.5364248750
 C          1.6795537524       -1.8609947186       -2.9452467339
 C          1.2066336340       -3.2755555389       -3.0790274986
 H          1.0160379817       -3.6684238005       -4.0661626741
 H          1.5987411888       -4.0002843745       -2.3816921112
 H          2.3921406517       -1.6297037447       -2.1692871331
 H          1.7979596109       -1.2609641793       -3.8339361036
 H         -0.5084018517       -1.8837486462       -3.1932912717
 O         -2.2799113109       -2.5832968034        0.7243761780
