  62
        -98.94793797
 C         -1.2524096794       -0.7705530108        0.3702628900
 C         -2.0928708397       -0.5787690204       -0.7519740196
 C         -3.0699161499        0.5138263093       -0.6386557387
 C         -3.0664821898        1.2920172587        0.4588921717
 C         -4.0339701300        2.4089517983        0.7215783226
 C         -5.2671411797        1.9096488676        1.4877506827
 C         -5.9028755296        0.6567887778        0.8851041421
 H         -5.2045983193       -0.1776890921        0.9808900914
 H         -6.7794650393        0.4145306972        1.4896924122
 C         -6.3196501600        0.8013025986       -0.5851733677
 H         -6.3811248003        1.8573059887       -0.8506207570
 H         -7.3180783399        0.3768675684       -0.7094918177
 C         -5.4033916601        0.0826596894       -1.5773541884
 H         -5.2637841898       -0.9542694308       -1.2619179990
 H         -5.9026340304        0.0650045498       -2.5497269882
 C         -4.0201629303        0.7124646498       -1.7859055984
 H         -3.5552746504        0.2203125504       -2.6454684288
 H         -4.1288194706        1.7742204199       -2.0175907977
 H         -4.9681760493        1.6831273470        2.5138202925
 H         -6.0028768599        2.7153732574        1.5184651234
 H         -4.3352884904        2.8508641188       -0.2263698970
 H         -3.5260062200        3.1687422281        1.3184786430
 O         -2.1974553395        1.1191536883        1.4876329314
 C         -1.2712987593        0.0899386885        1.4675091605
 O         -0.5277652790        0.0453158181        2.4698656503
 O         -2.0337458098       -1.2821136997       -1.7944610501
 C         -0.2207438791       -1.8830956006        0.3645125591
 C          0.7995364705       -1.6458099997       -0.7233552011
 C          1.3288842805       -2.6560048791       -1.5164957418
 C          2.2905994502       -2.3640570284       -2.4686812919
 C          2.7673876099       -1.0755121082       -2.6296443413
 C          2.2483291999       -0.0595128487       -1.8355721605
 C          1.2657980402       -0.3512081195       -0.9040812204
 H          0.8487204902        0.4523632000       -0.3167062398
 N          2.7074131895        1.2629739214       -1.9411892899
 S          2.8693617297        2.1655789506       -0.5400920594
 O          1.5827276197        2.6382256701       -0.0929024687
 O          3.8278434194        3.1933729410       -0.8891663090
 C          3.5970657803        1.0393150101        0.6376538598
 C          2.8666625407        0.5412385193        1.6967094797
 C          3.4651242311       -0.3772491311        2.5461717590
 C          4.7724871612       -0.7796894806        2.3257013184
 C          5.4965443808       -0.2623751598        1.2618519885
 C          4.9043385103        0.6527206605        0.4082253992
 H          5.4370256500        1.0859149711       -0.4227599707
 H          6.5155512708       -0.5717775395        1.0948161880
 H          5.2287786115       -1.4978135209        2.9885556878
 H          2.8937621514       -0.7728913417        3.3709992989
 H          1.8468848207        0.8591234390        1.8514253101
 H          3.4893651393        1.3945081320       -2.5659216600
 H          3.5253349296       -0.8537013576       -3.3649082513
 H          2.6846751402       -3.1555847979       -3.0875969725
 H          0.9837325208       -3.6694896593       -1.3947553323
 H          0.3066278311       -1.8094155711        1.3279679290
 C         -0.8935056288       -3.2373177407        0.2805806685
 C         -0.2685653384       -4.4319256410        0.9344774876
 C         -1.5028295884       -3.8171568616        1.5206483783
 H         -2.4383504583       -4.3494100217        1.4358334382
 H         -1.4085343783       -3.2453185221        2.4327681686
 H         -0.3589280583       -5.3918327007        0.4488637070
 H          0.6648946417       -4.2853747111        1.4564344474
 H         -1.4259495391       -3.3801895203       -0.6523528415
