  62
        -98.93105521
 C         -1.7373188343       -0.3756387014        0.6334581712
 C         -2.8765441849       -0.9853258679        0.0573692245
 C         -3.9046170148       -0.0776094470       -0.5031990061
 C         -3.6877017093        1.2494109950       -0.4881278231
 C         -4.5944417081        2.3515820809       -0.9674625736
 C         -5.7556864889        2.6264252736        0.0017971368
 C         -6.4425439617        1.3794243713        0.5525108788
 H         -7.1659215651        1.7037044787        1.3053840729
 H         -5.7032240301        0.7578187394        1.0608839741
 C         -7.1889573356        0.5379746436       -0.4798827077
 H         -7.9553372178        1.1530030353       -0.9570705974
 H         -7.6974413673       -0.2640527400        0.0614769079
 C         -6.3278391142       -0.0992390964       -1.5723968866
 H         -6.0511619557        0.6298947816       -2.3292218519
 H         -6.9450332994       -0.8488983114       -2.0764799426
 C         -5.0884921037       -0.8289125368       -1.0637301480
 H         -4.6881122500       -1.4431876344       -1.8795338938
 H         -5.3875574803       -1.5437611106       -0.2884974941
 H         -6.4891132364        3.2539308333       -0.5073453882
 H         -5.3606788056        3.1900629917        0.8505649205
 H         -4.9652104154        2.1248657551       -1.9626799734
 H         -3.9812615612        3.2526837519       -1.0392237494
 O         -2.5517040816        1.7905032025        0.0381645604
 C         -1.5655810725        1.0103728965        0.6065179639
 O         -0.5946628362        1.6534789545        1.0512708146
 O         -3.0614197978       -2.2278282499        0.0000916709
 C         -0.6022482430       -1.1533668228        1.2795528812
 C          0.4718298517       -1.4704384633        0.2697852258
 C          0.1495996786       -1.9566252889       -0.9930760434
 C          1.1412358408       -2.2195780416       -1.9208709184
 C          2.4731112368       -2.0124624251       -1.6068507995
 C          2.8067040526       -1.5326694236       -0.3477528469
 C          1.8082967390       -1.2634506701        0.5813511995
 H          2.0741675774       -0.8696461175        1.5532952292
 N          4.1682056233       -1.3295749649       -0.0350472107
 S          4.9641912933       -0.0733962280       -0.8088691428
 O          4.6521737927       -0.1235205558       -2.2132677992
 O          6.3569417995       -0.2051107371       -0.4497905721
 C          4.2945954909        1.4024403448       -0.0630977537
 C          2.9806547591        1.7381962884       -0.3249628410
 C          2.4229182188        2.8248833544        0.3298905579
 C          3.1920337893        3.5619072436        1.2179049233
 C          4.5144173264        3.2209771450        1.4597484774
 C          5.0704444892        2.1227862307        0.8237621575
 H          6.0883338220        1.8101927869        0.9925781627
 H          5.1079246839        3.7998775445        2.1491385781
 H          2.7511319572        4.4046147399        1.7267726898
 H          1.3834752035        3.0634141658        0.1701064190
 H          2.4074830839        1.1498492624       -1.0240659195
 H          4.3485148051       -1.2683256027        0.9577015577
 H          3.2558769632       -2.1976203337       -2.3237147458
 H          0.8750420830       -2.5936722514       -2.8980516302
 H         -0.8873159325       -2.1303353731       -1.2385158665
 H         -0.1623659950       -0.4626366604        2.0170235916
 C         -1.0730021523       -2.3853075669        2.0404048904
 C         -0.8438797676       -3.7849986464        1.5652787552
 C         -0.0779320573       -3.2626359442        2.7410331370
 H         -0.3196072282       -3.6338454489        3.7254311655
 H          0.9696548611       -3.0462530311        2.5949478610
 H         -1.6315905815       -4.5039230867        1.7296648995
 H         -0.3166986928       -3.9271089380        0.6349664256
 H         -2.0081634313       -2.2036177765        2.5597153928
