  62
        -98.93687192
 C         -2.3348875765       -1.0614047293        0.3316409233
 C         -2.5502118440        0.0544349571       -0.5084078045
 C         -3.5817637370        1.0250276681       -0.0832644462
 C         -4.2361573454        0.8207957630        1.0743255911
 C         -5.3372207698        1.6445845680        1.6869065990
 C         -6.6926163809        1.4281864838        0.9946613422
 C         -6.6388806099        1.4091651894       -0.5306561167
 H         -5.9554408749        0.6225457272       -0.8556616830
 H         -7.6347529075        1.1434275970       -0.8950067575
 C         -6.2399833999        2.7304329635       -1.1835143141
 H         -6.3321437573        2.5987107018       -2.2647030751
 H         -6.9473298933        3.5065913199       -0.8829840177
 C         -4.8223597319        3.2234500818       -0.8854644936
 H         -4.7612532918        3.6704966788        0.1030216999
 H         -4.5988202733        4.0211185609       -1.6001432017
 C         -3.7319068843        2.1704597272       -1.0562681520
 H         -2.7587876230        2.6767224843       -1.0670601929
 H         -3.8282030167        1.7140480018       -2.0481743158
 H         -7.3786087362        2.2088078411        1.3277088111
 H         -7.0903333958        0.4655951783        1.3251739891
 H         -5.4238671272        1.3251794411        2.7277723356
 H         -5.0642196519        2.6955191650        1.6851027297
 O         -3.9845011117       -0.2613865035        1.8639986225
 C         -3.0543037257       -1.2180115802        1.5212416835
 O         -2.9555458950       -2.1534539716        2.3403279374
 O         -1.9263789399        0.2662276119       -1.5851252879
 C         -1.3391127752       -2.1703635755        0.0275299002
 C          0.0766743476       -1.7686570176        0.3679966099
 C          0.8075414701       -2.4741751414        1.3166557519
 C          2.1127647709       -2.1180329275        1.6075940684
 C          2.7135091678       -1.0507907999        0.9642104467
 C          1.9911453974       -0.3381671634        0.0161379302
 C          0.6854258499       -0.7031777088       -0.2795003130
 H          0.1266068647       -0.1449669221       -1.0162399639
 N          2.5796308220        0.7651815108       -0.6265449734
 S          4.0901490261        0.5640006608       -1.3286430041
 O          4.1767081442        1.5873651191       -2.3474363998
 O          4.2956219173       -0.7971464105       -1.7675565947
 C          5.2270205192        0.9577079392       -0.0156555901
 C          5.0828719728        2.1700291560        0.6301550052
 C          5.9667525029        2.4957176443        1.6464189969
 C          6.9760744675        1.6105559616        1.9953893775
 C          7.1097969452        0.3989977417        1.3348197198
 C          6.2280287336        0.0665662617        0.3180313735
 H          6.2888416680       -0.8665245945       -0.2190694788
 H          7.8951231478       -0.2875881434        1.6073913549
 H          7.6623705808        1.8670147734        2.7869279460
 H          5.8656800849        3.4367477405        2.1628492930
 H          4.2869906669        2.8300671945        0.3275326400
 H          1.9508703270        1.2377488348       -1.2605100246
 H          3.7291491416       -0.7681821895        1.1884969258
 H          2.6683871846       -2.6757597230        2.3459216744
 H          0.3414452928       -3.3004950251        1.8335350010
 H         -1.6172348898       -3.0006603693        0.6904071653
 C         -1.4207146206       -2.6590574552       -1.4067432214
 C         -0.9246381673       -4.0333117944       -1.7357529332
 C         -2.3944773812       -3.7405318154       -1.7602716148
 H         -2.8971022289       -3.6894158758       -2.7144950639
 H         -3.0072684318       -4.1401169020       -0.9650860398
 H         -0.4127479075       -4.1845075071       -2.6738543491
 H         -0.5415131396       -4.6343904909       -0.9250358898
 H         -1.2598665206       -1.8774677244       -2.1376223943
