  62
        -98.94118618
 C         -2.1522349900       -0.8212212500       -0.3356139695
 C         -3.0510858501       -0.5679894197        0.7349681903
 C         -3.6007596504        0.7895126202        0.8261251198
 C         -3.2114497906        1.7139627699       -0.0701383506
 C         -3.7176587209        3.1255024998       -0.1256947012
 C         -4.9441448908        3.2420531891       -1.0415334613
 C         -6.0248430406        2.1981297890       -0.7603343710
 H         -5.6350510604        1.2076673990       -1.0057763005
 H         -6.8537263206        2.3961208786       -1.4432091111
 C         -6.5422962107        2.1941739895        0.6848711190
 H         -7.6322427207        2.1307026993        0.6664525990
 H         -6.2806606009        3.1327213298        1.1747172286
 C         -6.0425612105        1.0239331600        1.5341532595
 H         -6.2175300903        0.0848136497        1.0034074699
 H         -6.6325389605        0.9950221202        2.4539909695
 C         -4.5648226305        1.0778498405        1.9424760996
 H         -4.3970204604        0.2982053508        2.6912671299
 H         -4.3436310008        2.0445991907        2.3998282892
 H         -4.6150445807        3.1249028688       -2.0765782313
 H         -5.3638145411        4.2433272791       -0.9293061818
 H         -2.9198538010        3.7603373998       -0.5152532014
 H         -3.9691190010        3.4537796101        0.8810816886
 O         -2.3344010404        1.4452711597       -1.0677179804
 C         -1.7818551701        0.1832577098       -1.2297888499
 O         -0.9962858301        0.1137260795       -2.1977330498
 O         -3.3819883900       -1.4468599894        1.5753187907
 C         -1.5836688297       -2.2293354599       -0.4206794589
 C         -0.2171383297       -2.2802557693        0.2209130112
 C          0.0124307304       -3.0391373488        1.3622393715
 C          1.2579487104       -3.0464637983        1.9665064116
 C          2.2971410802       -2.2927236482        1.4507694514
 C          2.0736413301       -1.5253012788        0.3158745410
 C          0.8309633902       -1.5332345293       -0.2981578290
 H          0.6644934201       -0.9244793997       -1.1749114193
 N          3.1231165400       -0.7251381087       -0.2043046492
 S          3.4848760696        0.6385385617        0.7314599702
 O          3.6572952196        0.2241987323        2.1002115704
 O          2.5056328994        1.6806461614        0.4963098297
 C          5.0569732496        1.1114172218        0.0389429501
 C          5.1154005894        2.1329841614       -0.8885596703
 C          6.3423509494        2.4684572714       -1.4397299704
 C          7.4821905295        1.7773682919       -1.0582034200
 C          7.4067499797        0.7522475722       -0.1268323296
 C          6.1835559597        0.4129710922        0.4283301105
 H          6.0773712898       -0.3700182775        1.1604749008
 H          8.2955719698        0.2180594125        0.1676993007
 H          8.4353891595        2.0409692919       -1.4885471301
 H          6.4032754492        3.2658953712       -2.1628458307
 H          4.2043401293        2.6476516111       -1.1498076306
 H          2.8821740000       -0.3875348492       -1.1289274894
 H          3.2631451602       -2.2696617878        1.9267392514
 H          1.4194367804       -3.6408021979        2.8530396419
 H         -0.8005551195       -3.6092863288        1.7879234317
 H         -2.2588473896       -2.8478505098        0.1859273313
 C         -1.5508706395       -2.7928963004       -1.8273596286
 C         -1.4947376191       -4.2788132505       -2.0113565980
 C         -2.7464102693       -3.5280389909       -2.3510972684
 H         -3.0111877092       -3.4039744214       -3.3903458485
 H         -3.5974598993       -3.6305816708       -1.6935854084
 H         -0.8972195590       -4.6746050707       -2.8179512278
 H         -1.4977093190       -4.8923866201       -1.1232933078
 H         -1.0022943696       -2.1762439706       -2.5270045889
