  62
        -98.94301649
 C         -2.3329597300       -0.8978936095        0.4464718095
 C         -2.5266451496        0.1294576205       -0.5085597006
 C         -3.5087823995        1.1614370107       -0.1481630609
 C         -4.1266083798        1.1205843308        1.0454291990
 C         -5.1205236898        2.1218850710        1.5678075287
 C         -6.5606579097        1.8780248912        1.0964540684
 C         -6.8282405593        2.2059480011       -0.3729736017
 H         -7.9112193693        2.1972610513       -0.5112155819
 H         -6.4811419491        3.2171747211       -0.5876045217
 C         -6.1962524192        1.2207910610       -1.3662244115
 H         -5.9229673895        0.3011434610       -0.8437149814
 H         -6.9309791091        0.9491940210       -2.1275698116
 C         -4.9656989890        1.7588121208       -2.0964924713
 H         -4.5790990290        0.9682266207       -2.7448470211
 H         -5.2540716687        2.6013486908       -2.7291153814
 C         -3.8288611091        2.2104983706       -1.1703933910
 H         -2.9342303690        2.3689552605       -1.7776481708
 H         -4.0911532391        3.1494047607       -0.6833898412
 H         -6.8197324899        0.8345601013        1.2899825784
 H         -7.2141053497        2.5019475313        1.7105152682
 H         -5.0968723100        2.0422035811        2.6567599587
 H         -4.8096882295        3.1283494909        1.2861394487
 O         -3.8894977701        0.1366742309        1.9520266991
 C         -3.0174254102       -0.8984361693        1.6675968893
 O         -2.9328434406       -1.7532617293        2.5717261994
 O         -1.9220048593        0.2117749903       -1.6123545105
 C         -1.3895918001       -2.0732417896        0.2376762598
 C          0.0444934299       -1.6894227198        0.5171831201
 C          0.7579868096       -2.3042831399        1.5393018303
 C          2.0747414096       -1.9575469001        1.7857541805
 C          2.7042911999       -0.9896663502        1.0237842606
 C          2.0003611202       -0.3694015902       -0.0001355196
 C          0.6826005702       -0.7258899000       -0.2506733498
 H          0.1368086605       -0.2372518199       -1.0444352200
 N          2.6168505705        0.6367718197       -0.7625916495
 S          4.1471763206        0.3558674894       -1.3878792291
 O          4.2634200110        1.2451743493       -2.5228494692
 O          4.3660489705       -1.0483755706       -1.6476720690
 C          5.2440533804        0.9152560294       -0.1010119789
 C          5.0865096805        2.2018161194        0.3758506109
 C          5.9377061904        2.6556602793        1.3706622811
 C          6.9282131401        1.8212793092        1.8671319314
 C          7.0763793100        0.5337248792        1.3748105915
 C          6.2276179502        0.0734368492        0.3800397313
 H          6.3013949401       -0.9218063208       -0.0287857286
 H          7.8473651199       -0.1130705509        1.7616080717
 H          7.5884464600        2.1770054392        2.6423060915
 H          5.8256510004        3.6564279594        1.7557467510
 H          4.3061758507        2.8188969395       -0.0377605193
 H          2.0080383107        1.0412042597       -1.4595918197
 H          3.7285488799       -0.7137077103        1.2140368008
 H          2.6164710593       -2.4432217801        2.5829769107
 H          0.2688472693       -3.0501278698        2.1489466202
 H         -1.6842470304       -2.8221843995        0.9848732498
 C         -1.5210779099       -2.6979401297       -1.1386126102
 C         -1.0827451201       -4.1161635398       -1.3375129500
 C         -2.5412676100       -3.7715287196       -1.3614924804
 H         -3.0648345098       -3.7973463695       -2.3054174805
 H         -3.1484609802       -4.0662393094       -0.5176331305
 H         -0.5997867499       -4.3800015899       -2.2659976599
 H         -0.7018086703       -4.6474190998       -0.4784295599
 H         -1.3501464896       -2.0002826598       -1.9478546002
