  62
        -98.93865256
 C         -1.7403173580       -0.0506302141        0.4580228994
 C         -2.9499622109       -0.2264363303        1.1680587009
 C         -4.1870725795        0.1783188254        0.4780703914
 C         -4.1113034949        0.6907413434       -0.7645447694
 C         -5.1862736592        1.2245936468       -1.6886423190
 C         -6.6621282010        0.9453634573       -1.4159457986
 C         -7.0748150579       -0.5185360015       -1.5660324430
 H         -8.1167577194       -0.6131942745       -1.2525429555
 H         -7.0200129188       -0.7877862382       -2.6238865989
 C         -6.2286876660       -1.5250309155       -0.7903876738
 H         -6.6283764119       -2.5226873532       -0.9915368474
 H         -5.2033644476       -1.5083531934       -1.1655573326
 C         -6.2062816920       -1.3304790469        0.7243579347
 H         -5.7053584700       -2.1991934629        1.1597860542
 H         -7.2283005287       -1.3072722068        1.1073065888
 C         -5.4679089634       -0.0749645219        1.2200849994
 H         -6.1108567319        0.8013209585        1.1877846632
 H         -5.1887238113       -0.2385415431        2.2650571162
 H         -6.9422431281        1.3220509057       -0.4366764535
 H         -7.2281311982        1.5243100482       -2.1508698561
 H         -5.0390199641        2.3099990053       -1.7182879333
 H         -4.9303186881        0.8538716852       -2.6863561009
 O         -2.9155753195        0.8562137753       -1.4044620123
 C         -1.7108048360        0.4891224429       -0.8259161487
 O         -0.7142765240        0.6888333850       -1.5458730713
 H          2.1979515942       -0.1500160225        0.3312218823
 C          1.7918233748        0.7236847667        0.8110627002
 C          0.4781468807        0.7326520806        1.2521371118
 C         -0.0089695062        1.8813937209        1.8720269218
 C          0.7944449112        2.9925234601        2.0325705166
 C          2.1016122362        2.9838932455        1.5766743816
 C          2.6007174994        1.8427647838        0.9625158078
 N          3.9358346297        1.7859266259        0.5340259894
 S          4.3239387126        1.0950727013       -0.9429116341
 O          5.6499016078        1.6043544155       -1.2285625767
 O          3.3183862453        1.3536822589       -1.9452289036
 C          4.4498567072       -0.6489002784       -0.6105453484
 C          5.2369533709       -1.0650821916        0.4452387970
 C          5.3720598885       -2.4233440559        0.6833090698
 C          4.7282413030       -3.3369530607       -0.1377714802
 C          3.9433118823       -2.9024426362       -1.1953912872
 C          3.8007706384       -1.5446570673       -1.4366637557
 H          3.1890805840       -1.1607072377       -2.2384372928
 H          3.4400544771       -3.6131130471       -1.8319773822
 H          4.8351029561       -4.3941929224        0.0477929353
 H          5.9784953264       -2.7662647231        1.5058865612
 H          5.7257624285       -0.3248017742        1.0559246241
 H          4.4598438802        2.6368385706        0.6811994809
 H          2.7296480051        3.8538705662        1.6959272157
 H          0.4011293768        3.8762692126        2.5123458118
 H         -1.0313576430        1.8892031511        2.2248865001
 C         -0.4359450533       -0.4595500888        1.1171457890
 H         -0.7167039163       -0.7853644371        2.1301264456
 C          0.1908211621       -1.6293606423        0.3891536385
 C          1.0616861995       -2.5936107751        1.1362796440
 C         -0.3037158105       -3.0128025200        0.6833986577
 H         -0.3863624955       -3.7140661971       -0.1332105356
 H         -1.0834469094       -3.1124411887        1.4243871841
 H          1.2111842958       -2.4125113879        2.1897419692
 H          1.9215973225       -3.0087442881        0.6331969711
 H          0.4429094572       -1.3955679991       -0.6396837993
 O         -2.9969171560       -0.6938174882        2.3377878276
