  62
        -98.93916450
 C         -2.2341555171       -0.1319702585        0.2924075875
 C         -3.2746815515       -0.7038082384       -0.4807231714
 C         -4.4050690553        0.1839371544       -0.7873862482
 C         -4.3916053264        1.4633441884       -0.3748744813
 C         -5.4562225108        2.4936639717       -0.6372185179
 C         -6.6284077392        2.4455317870        0.3525847224
 C         -7.5757203718        1.2572113118        0.1821843683
 H         -8.4603343365        1.4639376957        0.7878275059
 H         -7.8992868059        1.1983908220       -0.8574210824
 C         -6.9846066691       -0.0912039551        0.6167355584
 H         -7.7142521203       -0.6291928445        1.2261776622
 H         -6.1080786264        0.0809059045        1.2457425310
 C         -6.5913094074       -1.0127436615       -0.5378059689
 H         -6.1507199689       -1.9198730146       -0.1166727983
 H         -7.4840265620       -1.2999703933       -1.0977201609
 C         -5.5772940530       -0.4033986037       -1.5146432008
 H         -5.2018877913       -1.2001077769       -2.1611243988
 H         -6.0585084858        0.3531096533       -2.1337545497
 H         -7.2044356597        3.3642220139        0.2196907964
 H         -6.2270987967        2.4493470747        1.3687245539
 H         -4.9717573849        3.4685783948       -0.5502368349
 H         -5.8322539592        2.3816174206       -1.6544885449
 O         -3.3592156730        1.9863894415        0.3395197643
 C         -2.2793841908        1.2032452179        0.7067588302
 O         -1.4305118017        1.8042335548        1.3977132214
 H          1.4498435425        0.2275971323        0.6564316474
 C          1.2465539475       -0.3564010668       -0.2299402471
 C          0.0228108002       -0.9930988877       -0.3767839708
 C         -0.2212313829       -1.7174857042       -1.5392314168
 C          0.7464160405       -1.8055891583       -2.5228238829
 C          1.9766715035       -1.1933071115       -2.3611691943
 C          2.2255869452       -0.4576206994       -1.2084391339
 N          3.4539182775        0.1976070536       -1.0277538948
 S          4.0821177601        0.3153174583        0.5340207894
 O          3.9018016959       -0.9357681378        1.2357067793
 O          3.5378278189        1.4890905459        1.1695653336
 C          5.8082246268        0.5739890233        0.1686897946
 C          6.2403066551        1.8515475107       -0.1337753958
 C          7.5752793511        2.0498187419       -0.4486054561
 C          8.4505139107        0.9737248276       -0.4568742884
 C          8.0026206235       -0.3022413594       -0.1493940677
 C          6.6685459607       -0.5078268023        0.1655192679
 H          6.2770019354       -1.4796291089        0.4199656117
 H          8.6861372831       -1.1359206120       -0.1531874166
 H          9.4890140559        1.1313629975       -0.7015330297
 H          7.9276522472        3.0408821409       -0.6849656585
 H          5.5249736299        2.6571246526       -0.1050755818
 H          4.1551626418       -0.0844793265       -1.6988854252
 H          2.7359829510       -1.2756223373       -3.1240659334
 H          0.5450626193       -2.3692334051       -3.4213363076
 H         -1.1784128187       -2.1989512360       -1.6655722627
 C         -0.9997649478       -0.9035856132        0.7313298040
 H         -0.5516352121       -0.3093186137        1.5401827908
 C         -1.3149192901       -2.2847535384        1.2747264497
 C         -0.2764960178       -2.9845725366        2.0969300368
 C         -1.5235145828       -2.4649232739        2.7463801362
 H         -2.2664450331       -3.1745097227        3.0786091148
 H         -1.4441015390       -1.5888172377        3.3742810836
 H         -0.1630764321       -4.0518198010        1.9835207098
 H          0.6518565968       -2.4621027657        2.2796282474
 H         -1.9197111639       -2.8838231701        0.6072627542
 O         -3.2860161209       -1.8886692527       -0.9063034907
