  62
        -98.93657933
 C         -2.0585864508       -1.5078478106       -0.0640113780
 C         -1.6758259836       -0.2691725310       -0.6303215381
 C         -2.7689888607        0.6844228794       -0.8775748538
 C         -4.0372942695        0.3204109521       -0.6172965308
 C         -5.2363757938        1.2085106243       -0.7774721435
 C         -5.5451993393        1.9623484972        0.5238601427
 C         -4.3276138381        2.6475617733        1.1443987685
 H         -4.6711175001        3.1713152382        2.0390989381
 H         -3.6176948591        1.8843879335        1.4716379180
 C         -3.6136815693        3.6382726779        0.2142750187
 H         -3.3918470694        4.5475399395        0.7768604460
 H         -4.2753864403        3.9185881116       -0.6060226244
 C         -2.2869180273        3.1316835585       -0.3550934269
 H         -1.6604383472        2.7584243149        0.4594493349
 H         -1.7709085121        3.9807876820       -0.8117783588
 C         -2.3943637310        2.0343439302       -1.4219014716
 H         -3.0931636602        2.3451006192       -2.2011333470
 H         -1.4072076017        1.9096510416       -1.8770981634
 H         -6.3180654416        2.7049848830        0.3173945348
 H         -5.9441777619        1.2500414372        1.2498305791
 H         -5.0542660111        1.9147945229       -1.5850726277
 H         -6.0935181664        0.5854887261       -1.0384458967
 O         -4.3703551997       -0.9003091688       -0.1237904595
 C         -3.3935810854       -1.8317499450        0.1828016146
 O         -3.8302692694       -2.8975503943        0.6634936953
 H          1.7367458943       -2.0724433112       -0.3605941956
 C          1.4131447496       -1.7575562738        0.6129041287
 C          0.1078623494       -1.9254200087        1.0451760708
 C         -0.2252140612       -1.4421741673        2.3131746060
 C          0.7064784974       -0.8132776186        3.1132112865
 C          2.0084493043       -0.6498601226        2.6723537687
 C          2.3569066588       -1.1264830387        1.4164165305
 N          3.6824719008       -1.0188989855        0.9559083569
 S          4.0531311329       -0.3074265429       -0.5131157932
 O          3.3395984372       -0.9645647788       -1.5757540398
 O          5.4978660831       -0.3635245265       -0.5831267765
 C          3.5463030905        1.3948336441       -0.3460042623
 C          2.2078319298        1.7198317143       -0.4357631960
 C          1.8349237113        3.0433728553       -0.2532758456
 C          2.7927532957        4.0085645889        0.0149989844
 C          4.1327540451        3.6623154319        0.1040816229
 C          4.5143914896        2.3428304824       -0.0736317658
 H          5.5437783417        2.0270413203       -0.0185204792
 H          4.8776424479        4.4136952389        0.3116367047
 H          2.4923388963        5.0352428436        0.1540566252
 H          0.7911693136        3.3056176582       -0.3228545988
 H          1.4748716799        0.9572068732       -0.6471963152
 H          4.3267923018       -0.6764642389        1.6548821425
 H          2.7446114839       -0.1627396074        3.2938401945
 H          0.4188265961       -0.4461678417        4.0869183021
 H         -1.2425844387       -1.5648760050        2.6613786922
 C         -1.0215103690       -2.5715361776        0.2808494553
 H         -1.5319456450       -3.2406805859        0.9942109508
 C         -0.7751133420       -3.4305410013       -0.9511276758
 C          0.1075642494       -3.0930337199       -2.1119687638
 C          0.4494607903       -4.2514495219       -1.2201729185
 H          0.3101453675       -5.2490477623       -1.6105742030
 H          1.2913851957       -4.1615631479       -0.5528846748
 H          0.7047170705       -2.1957818894       -2.0772512451
 H         -0.2689373756       -3.3088059664       -3.1024137582
 H         -1.7167987643       -3.9061340382       -1.2216959590
 O         -0.4902781764        0.0393601832       -0.9097180129
