  62
        -98.93724508
 C         -1.4794641356       -1.6577839711        0.3248230800
 C         -1.8391063728       -0.6256235072        1.2275758259
 C         -3.0568020565        0.1253767536        0.8824978193
 C         -3.8570237861       -0.3071708032       -0.1062427904
 C         -5.1575280005        0.3149641133       -0.5374881141
 C         -4.9992213001        1.4709007397       -1.5341054518
 C         -4.4280665662        2.7608508768       -0.9439485472
 H         -4.5667832948        3.5462492929       -1.6896313923
 H         -5.0044354988        3.0432718002       -0.0625036285
 C         -2.9382693628        2.6820657258       -0.5814755536
 H         -2.4853182427        1.8207259414       -1.0782175530
 H         -2.4190958904        3.5688527118       -0.9526139533
 C         -2.6465363282        2.5899164204        0.9166864624
 H         -2.9656001193        3.5121582774        1.4084559142
 H         -1.5630334680        2.5012053366        1.0409595812
 C         -3.3188681225        1.4024810341        1.6201295429
 H         -4.3906311943        1.5797723776        1.7145671040
 H         -2.8889084181        1.3044682177        2.6199057970
 H         -5.9891891961        1.6892285575       -1.9410965611
 H         -4.3658313062        1.1372471158       -2.3591754771
 H         -5.7360733026       -0.4772610499       -1.0175458529
 H         -5.7039516658        0.6626348996        0.3397330859
 O         -3.5777624395       -1.4293879346       -0.8203413376
 C         -2.3741019957       -2.1038718256       -0.6541780288
 O         -2.2452750804       -3.0860909291       -1.4064485205
 O         -1.2103987812       -0.3410686673        2.2797093378
 C         -0.1552101684       -2.4053829695        0.4317070415
 C          0.8035360336       -1.7598249774        1.3980302950
 C          1.2160122529       -2.3983073301        2.5592947048
 C          2.1452314265       -1.8008452317        3.3931227608
 C          2.6906379963       -0.5716249197        3.0753917086
 C          2.2950610155        0.0682811346        1.9039541533
 C          1.3699981883       -0.5351750971        1.0709287217
 H          1.0336193725       -0.0188163164        0.1871241906
 N          2.8730374110        1.2861507198        1.5325882384
 S          2.3200103369        2.2251223532        0.2798888224
 O          3.1632369523        3.4016208129        0.3308482947
 O          0.8991935285        2.4753169431        0.3364537890
 C          2.7264623811        1.2680617417       -1.1671516323
 C          1.7872841204        1.1117430288       -2.1667361867
 C          2.1116434225        0.3573031261       -3.2830695003
 C          3.3664432372       -0.2239821605       -3.3806866621
 C          4.3019249801       -0.0517680165       -2.3716879126
 C          3.9822186065        0.7011624324       -1.2533685903
 H          4.6825549041        0.8536479175       -0.4494989977
 H          5.2763944559       -0.5059568912       -2.4518555007
 H          3.6133869895       -0.8153907720       -4.2483988458
 H          1.3831919810        0.2215728619       -4.0670165938
 H          0.8175104341        1.5705563999       -2.0449673539
 H          3.3939717905        1.7831292456        2.2368506632
 H          3.4099213091       -0.1026455740        3.7292063836
 H          2.4473145408       -2.2981914116        4.3026950737
 H          0.7868555546       -3.3550300967        2.8213847609
 H         -0.3641488825       -3.4322259649        0.7691993530
 C          0.5343319772       -2.4769943335       -0.9301497763
 C          1.9016013275       -3.0889170560       -1.0352228572
 C          0.7211589207       -3.7784812995       -1.6432198596
 H          0.6122619856       -3.7884480537       -2.7164633156
 H          0.3368807784       -4.6665982805       -1.1662032075
 H          2.6213399676       -2.6187214224       -1.6876501280
 H          2.3286055071       -3.5071602704       -0.1364821864
 H          0.3406205128       -1.6086773988       -1.5511528255
